15
H10 C4 O1
O 0.028010 -0.000002 1.451411
C -0.005840 0.000000 0.012330
C 0.684023 1.261044 -0.515270
C 0.684062 -1.261020 -0.515275
C -1.488821 -0.000022 -0.345181
H 1.738780 1.274705 -0.226512
H 0.638085 1.312184 -1.605173
H 0.206482 2.152269 -0.105793
H 0.206545 -2.152262 -0.105806
H 0.638131 -1.312155 -1.605178
H 1.738818 -1.274654 -0.226512
H -1.976837 -0.883727 0.067970
H -1.976864 0.883668 0.067969
H -1.626892 -0.000025 -1.427629
H 0.949122 0.000003 1.735750