15
H8 C5 O2
O -0.054046 -0.951242 -0.165721
O -2.267644 -0.836932 0.170525
C 1.052105 -0.040293 -0.401782
C 0.565392 1.308976 0.143509
C -0.947370 1.216705 -0.038474
C 2.301628 -0.599365 0.239733
C -1.222312 -0.278804 0.011018
H 1.183942 0.017234 -1.487682
H 0.818911 1.390072 1.203114
H 1.024229 2.148533 -0.377537
H -1.538170 1.732771 0.715234
H -1.270014 1.582288 -1.017310
H 2.547970 -1.577228 -0.174531
H 3.143935 0.071935 0.058653
H 2.166063 -0.703526 1.317603