21
H12 C5 S1 O3
S -0.921820 -0.263284 -0.000185
O 2.951466 0.654779 -0.000574
O -0.993201 -0.988163 1.249882
O -0.994264 -0.986779 -1.250974
C 0.594655 0.707608 -0.000275
C -2.215512 0.992829 0.001087
C 1.820175 -0.194469 0.000561
C -3.593930 0.340911 0.000177
C 4.172275 -0.059509 0.000187
H 0.582960 1.334840 -0.892107
H 0.582455 1.335947 0.890776
H -2.055254 1.602651 0.891349
H -2.055095 1.604748 -0.887713
H 1.818073 -0.837248 0.888882
H 1.817821 -0.839229 -0.886342
H -3.731735 -0.280646 0.884261
H -4.361565 1.115701 0.001116
H -3.731605 -0.278409 -0.885490
H 4.265385 -0.691420 0.892039
H 4.265139 -0.693748 -0.890036
H 4.974558 0.676439 -0.000886