11
H6 C3 O2
O -0.550395 -0.715385 0.000086
O 0.294763 1.369235 -0.000043
C 1.796602 -0.520248 -0.000095
C 0.462490 0.176896 0.000274
C -1.875235 -0.160233 -0.000084
H 1.882555 -1.161112 0.878643
H 1.882132 -1.161059 -0.878916
H 2.592394 0.219088 -0.000271
H -2.549389 -1.012289 -0.000395
H -2.033074 0.452856 0.886772
H -2.032706 0.453222 -0.886751