17
H10 C5 O2
O -0.645255 0.795509 0.229086
O 0.326027 -1.236299 0.352567
C 1.675621 0.702130 -0.170263
C -1.938620 0.224319 0.535359
C 0.405828 -0.048744 0.164257
C 2.907799 -0.190127 -0.231708
C -2.652596 -0.237633 -0.719809
H 1.509105 1.216778 -1.120944
H 1.793513 1.495704 0.572763
H -1.802843 -0.597205 1.237548
H -2.481297 1.031999 1.025223
H 2.793443 -0.967422 -0.987242
H 3.791009 0.401130 -0.477775
H 3.082252 -0.686300 0.723072
H -2.111046 -1.054411 -1.196887
H -3.652173 -0.595820 -0.463655
H -2.756338 0.582196 -1.432336