17
H10 C5 O2
O -0.285879 0.284818 0.664282
O -1.448604 -1.186290 -0.591980
C 1.832181 -0.477869 -0.328783
C 0.814596 -0.647692 0.788144
C 2.493430 0.898539 -0.361687
C -1.356983 -0.111646 -0.055382
C -2.408349 0.966133 -0.088323
H 2.592967 -1.253062 -0.190841
H 1.345239 -0.692327 -1.283126
H 1.255623 -0.418281 1.758969
H 0.414894 -1.660503 0.800047
H 3.025388 1.103829 0.570807
H 3.215168 0.965063 -1.177517
H 1.755400 1.689381 -0.503298
H -2.698798 1.237375 0.927390
H -2.005917 1.862812 -0.562201
H -3.273349 0.612697 -0.642458