16
H10 C4 O2
O -1.720696 -0.516271 -0.000306
O 1.720695 0.516275 -0.000298
C -0.644506 0.399063 -0.000070
C 0.644506 -0.399067 -0.000063
C -2.982988 0.113420 0.000260
C 2.982989 -0.113421 0.000256
H -0.681130 1.045981 -0.887173
H -0.681350 1.045744 0.887194
H 0.681348 -1.045739 0.887207
H 0.681143 -1.045989 -0.887161
H -3.737726 -0.671809 0.000719
H -3.118678 0.740628 0.890943
H -3.119573 0.740448 -0.890418
H 3.118711 -0.740567 0.890978
H 3.119529 -0.740510 -0.890385
H 3.737726 0.671807 0.000626