30
H18 C8 S1 O3
S 0.500587 0.632701 0.037918
O -1.005337 0.233397 -0.338635
O 0.669283 0.527519 1.462807
O 0.838606 1.872128 -0.608575
C 1.304135 -0.727121 -0.807643
C 2.827396 -0.580864 -0.860346
C 3.556438 -0.817124 0.464135
C -3.394777 0.489822 -0.217939
C -2.064000 1.074670 0.208793
C -3.699100 -0.888100 0.370425
C 5.073299 -0.729075 0.310984
C -5.061333 -1.426691 -0.061580
H 0.992001 -1.635053 -0.290483
H 0.874835 -0.725130 -1.809365
H 3.182935 -1.306173 -1.599085
H 3.076367 0.406361 -1.257982
H 3.217788 -0.094114 1.208353
H 3.282999 -1.803692 0.852864
H -4.168075 1.201467 0.091514
H -3.430880 0.449770 -1.310907
H -1.961813 1.090859 1.295676
H -1.930436 2.085156 -0.180066
H -2.915611 -1.588776 0.072155
H -3.657183 -0.827970 1.462915
H 5.377246 0.258647 -0.043845
H 5.575504 -0.906973 1.263350
H 5.445962 -1.467146 -0.404224
H -5.120178 -1.527410 -1.148196
H -5.254054 -2.409289 0.372651
H -5.869567 -0.761198 0.252229