11
H6 C3 O2
O -0.415634 -1.124087 -0.199031
O -0.407710 1.128677 -0.192085
C 0.944886 -0.777927 0.055021
C 0.952484 0.770470 0.048634
C -1.169005 0.003613 0.177206
H 1.268664 -1.175490 1.022595
H 1.556801 -1.216617 -0.732241
H 1.292349 1.173103 1.008417
H 1.559145 1.195945 -0.750027
H -2.110592 0.008528 -0.370208
H -1.349804 0.000871 1.265230