14
H7 C4 O2 F1
F -2.398048 -0.857449 -0.443366
O 0.281630 -0.398193 0.640936
O 1.321135 1.262595 -0.474204
C -0.867730 0.441448 0.845851
C -1.821605 0.406287 -0.321760
C 1.320006 0.139109 -0.039760
C 2.445301 -0.849917 -0.167966
H -0.547673 1.469921 1.017887
H -1.351611 0.047830 1.738644
H -1.314037 0.636060 -1.259136
H -2.626856 1.127255 -0.156982
H 2.782644 -1.160607 0.821785
H 2.095680 -1.743142 -0.687532
H 3.266334 -0.397059 -0.716422