14
H8 C4 O2
O 0.031836 1.137858 -0.056685
O 0.034902 -1.114471 0.153369
C -0.698680 -0.037891 -0.390452
C 1.394595 0.765086 0.154821
C 1.398016 -0.759773 -0.036197
C -2.089131 0.011368 0.185507
H -0.723905 -0.136046 -1.489104
H 2.043810 1.275182 -0.561430
H 1.683502 1.056800 1.167049
H 1.999754 -1.294396 0.696641
H 1.729156 -1.035636 -1.044853
H -2.624253 0.872197 -0.215661
H -2.634713 -0.894991 -0.078957
H -2.036054 0.097053 1.270772