16
H10 C5 O1
O 0.019962 -1.134493 -0.017970
C 0.736009 0.051094 -0.389477
C -0.116541 1.197839 0.151031
C -1.537882 0.672101 -0.071309
C -1.373419 -0.842144 0.137840
C 2.149879 -0.037675 0.147142
H 0.769878 0.114840 -1.488244
H 0.085729 1.334462 1.217108
H 0.077006 2.143529 -0.356488
H -2.270234 1.108576 0.607888
H -1.863758 0.885335 -1.091512
H -1.953047 -1.424829 -0.583998
H -1.674974 -1.150888 1.143078
H 2.652498 -0.924151 -0.241918
H 2.727282 0.840412 -0.150664
H 2.141648 -0.098628 1.237149