14
H7 C4 N1 O2
O -1.204523 0.920452 0.083224
O 0.873474 1.813963 0.018796
N 0.522713 -0.468504 -0.141826
C -0.595290 -1.350032 0.117495
C -1.768311 -0.387179 -0.099266
C 0.159541 0.848547 -0.010717
C 1.895947 -0.893456 -0.004094
H -0.564349 -1.745690 1.141508
H -0.618377 -2.194673 -0.573960
H -2.577325 -0.518258 0.616168
H -2.165956 -0.456260 -1.114106
H 2.536394 -0.029469 -0.166359
H 2.093456 -1.297446 0.995738
H 2.134238 -1.661269 -0.742881