16
H8 C5 O3
O 0.207272 -0.712126 0.536740
O 1.559148 0.822825 -0.339408
O 2.246896 -1.321276 -0.210396
C -0.599784 0.483861 0.508803
C -1.759018 0.325620 -0.462717
C 0.422292 1.564870 0.114163
C -2.716271 -0.803876 -0.091946
C 1.420536 -0.488753 -0.022475
H -0.973027 0.634277 1.523277
H -2.295716 1.280088 -0.488421
H -1.353627 0.167448 -1.467288
H 0.073992 2.197874 -0.701298
H 0.724389 2.189730 0.955833
H -3.159003 -0.638083 0.893191
H -3.530060 -0.873349 -0.814877
H -2.200008 -1.763698 -0.070874