22
H14 C6 O2
O -1.660893 0.209092 0.125945
O 1.797089 -0.731273 -0.116118
C -0.563167 -0.615088 -0.207676
C 0.702020 0.085462 0.249837
C -2.913032 -0.336963 -0.250989
C 3.055560 -0.307803 0.387079
C -4.008577 0.626617 0.154202
C 3.632598 0.901520 -0.336918
H -0.644763 -1.594285 0.283039
H -0.518091 -0.787681 -1.291576
H 0.756614 1.074893 -0.219191
H 0.673876 0.230205 1.338361
H -2.931374 -0.509875 -1.336660
H -3.055390 -1.312135 0.236520
H 2.973694 -0.105190 1.463984
H 3.717604 -1.166627 0.262338
H -3.875028 1.590472 -0.339088
H -4.985487 0.227693 -0.125742
H -3.998283 0.789048 1.232962
H 3.024203 1.795322 -0.190740
H 4.634340 1.117484 0.042008
H 3.706114 0.705655 -1.408045