15
H10 C4 S1
S -0.000000 -0.551718 -0.000002
C 1.399251 0.619015 0.000300
C -1.399251 0.619015 -0.000303
C 2.721328 -0.138416 -0.000141
C -2.721328 -0.138416 0.000148
H 1.323132 1.256714 -0.883158
H 1.323353 1.256115 0.884208
H -1.323145 1.256752 0.883128
H -1.323340 1.256077 -0.884237
H 2.812582 -0.771984 -0.883905
H 3.557958 0.563227 0.000932
H 2.812052 -0.773923 0.882297
H -2.812431 -0.772243 0.883745
H -3.557958 0.563227 -0.000547
H -2.812202 -0.773665 -0.882457