15
H8 C4 S1 O2
S -0.783469 -0.000056 -0.000052
O -1.506006 -0.318480 1.210660
O -1.504458 0.318666 -1.211619
C 0.439512 1.306179 0.349483
C 0.439814 -1.306562 -0.348467
C 1.775345 0.755429 -0.149592
C 1.775746 -0.755109 0.149538
H 0.105322 2.211334 -0.152430
H 0.431405 1.454032 1.428713
H 0.105912 -2.211170 0.154602
H 0.431213 -1.455558 -1.427527
H 1.867562 0.919873 -1.225773
H 2.613067 1.261251 0.331379
H 2.613407 -1.260590 -0.331911
H 1.868820 -0.919395 1.225678