18
H9 C5 O3 F1
F -3.294147 -0.909940 0.267567
O -0.639784 -0.226031 -0.789728
O 1.362858 -0.800493 -0.220792
O 0.471992 1.070593 0.700202
C -1.779387 0.647102 -0.717988
C 2.601163 -0.608522 0.505719
C -2.682175 0.328738 0.447286
C 3.558217 0.284178 -0.257187
C 0.410571 0.110647 -0.028212
H -2.309109 0.491412 -1.656602
H -1.447522 1.683536 -0.645610
H 2.371657 -0.200179 1.488907
H 2.999038 -1.615972 0.616870
H -3.468928 1.085180 0.513978
H -2.126951 0.298590 1.385509
H 3.156081 1.292499 -0.355993
H 4.506311 0.347383 0.281258
H 3.755892 -0.118395 -1.251593