22
H13 C6 O2 F1
F 4.220091 -0.924100 -0.350085
O 1.200772 0.764071 0.556791
O -2.290996 0.580230 -0.446733
C -0.039268 1.149026 -0.013781
C -1.083572 0.040236 0.050540
C 2.035179 -0.013311 -0.279224
C -3.345379 -0.356286 -0.623890
C 3.373904 -0.129012 0.422997
C -3.996309 -0.802531 0.678110
H -0.393715 2.002696 0.565088
H 0.094496 1.474908 -1.052103
H -0.777900 -0.823668 -0.556335
H -1.182334 -0.296828 1.089534
H 2.167315 0.469485 -1.256222
H 1.628037 -1.017305 -0.449366
H -4.077902 0.154492 -1.251201
H -2.975748 -1.225617 -1.185129
H 3.261635 -0.600862 1.400726
H 3.840624 0.850079 0.542735
H -4.354829 0.060784 1.241204
H -4.849406 -1.450106 0.462850
H -3.306628 -1.364306 1.310012