19
H12 C5 O2
O -1.169745 -0.255218 0.000063
O 2.353690 0.449327 0.000304
C -0.012695 0.554725 0.000065
C 1.196014 -0.360726 -0.000289
C -2.378200 0.485355 -0.000272
C -3.543756 -0.481182 0.000204
C 3.551005 -0.296270 0.000003
H 0.012446 1.202428 -0.886727
H 0.012737 1.202023 0.887144
H 1.172123 -1.008706 0.886503
H 1.172383 -1.007773 -0.887769
H -2.414931 1.136851 0.884603
H -2.414924 1.136019 -0.885758
H -3.514305 -1.118906 0.884864
H -4.488419 0.066029 0.000121
H -3.514526 -1.119573 -0.883979
H 3.627347 -0.934288 0.890126
H 3.627871 -0.932714 -0.891201
H 4.376427 0.414329 0.000876