21
H12 C6 O3
O -0.686190 -0.504933 -0.770045
O 1.435587 -0.115979 -0.861662
O 0.576430 -0.962715 1.058162
C -2.560185 0.206106 0.654590
C -1.887016 -0.936834 -0.087203
C -3.009309 1.352002 -0.249906
C 2.762713 -0.088904 -0.286867
C 3.016502 1.201373 0.466244
C 0.453183 -0.565261 -0.073843
H -3.423317 -0.216762 1.179019
H -1.880345 0.571427 1.428344
H -2.524607 -1.316417 -0.886240
H -1.632341 -1.749360 0.591418
H -3.730471 1.007328 -0.995342
H -3.484822 2.143695 0.331446
H -2.164129 1.789104 -0.783228
H 2.884760 -0.957143 0.359262
H 3.424690 -0.183327 -1.146543
H 2.357742 1.283134 1.330823
H 4.048901 1.220554 0.822339
H 2.862003 2.065885 -0.181040