18
H7 C5 O3 F3
F -1.972141 -0.033674 1.344563
F -2.670575 -1.287334 -0.279202
F -3.374012 0.762533 -0.117933
O -0.031076 -0.370440 -0.681812
O 1.965903 -0.786879 0.017503
O 1.142931 1.304186 0.312010
C -1.165496 0.469449 -0.832203
C -2.300219 -0.037003 0.042407
C 3.232093 -0.417263 0.623658
C 4.185563 0.163181 -0.399541
C 1.048787 0.167759 -0.068912
H -1.487696 0.421849 -1.871719
H -0.933754 1.494927 -0.550403
H 3.038705 0.282033 1.435578
H 3.606362 -1.353497 1.033789
H 3.805481 1.103377 -0.799190
H 5.149821 0.360672 0.073507
H 4.345206 -0.534748 -1.222464