15
H8 C4 S1 O2
S -0.060577 0.331030 0.048589
O 0.276598 1.561038 -0.632031
O -0.200025 0.308914 1.486933
C 1.155086 -0.915711 -0.417621
C 2.547583 -0.519794 0.061877
C -1.567369 -0.272350 -0.676636
C -2.578315 -0.666673 0.079760
H 0.817419 -1.852439 0.027262
H 1.109635 -0.999377 -1.504793
H 2.574628 -0.426941 1.147122
H 3.264778 -1.286032 -0.235433
H 2.855948 0.428775 -0.376232
H -1.596511 -0.222558 -1.758170
H -3.516953 -0.980518 -0.359938
H -2.494202 -0.669827 1.159258