17
H7 C4 S1 O2 F3
S -1.883887 -0.181477 -0.000024
F 2.463912 0.772948 -1.085284
F 2.464008 0.773564 1.084833
F 3.132264 -0.984503 0.000260
O -2.054569 -0.882278 1.250866
O -2.054899 -0.882045 -1.250987
C -0.235707 0.556754 -0.000174
C 0.815818 -0.549074 0.000212
C -2.972744 1.235007 0.000245
C 2.221885 0.005461 0.000053
H -0.161827 1.179280 -0.891825
H -0.161820 1.179825 0.891105
H 0.710530 -1.179562 0.883370
H 0.710586 -1.180262 -0.882449
H -3.982382 0.826077 0.000186
H -2.807149 1.822805 0.900754
H -2.807144 1.823080 -0.900083