12
H5 C3 O3 F1
F -2.438619 0.156765 0.777059
O -0.653103 -0.757183 -0.282944
O 1.476041 -0.694606 0.090524
O 0.400642 1.262183 -0.268371
C -1.899731 -0.136119 -0.453374
C 0.416821 0.067628 -0.157944
C 2.719255 0.013088 0.243715
H -2.538712 -0.869281 -0.940678
H -1.801376 0.793326 -1.010693
H 2.963231 0.553754 -0.669618
H 2.655979 0.714040 1.074620
H 3.461742 -0.753445 0.444779