18
H10 C5 O3
O -0.336107 0.533055 -0.252905
O 1.814474 0.618900 -0.444923
O 0.919253 -0.991108 0.868043
C -1.576192 -0.049687 0.247982
C -2.584499 1.083009 0.278715
C -1.990256 -1.206744 -0.645533
C 0.803149 -0.043983 0.130793
C 3.125310 0.128592 -0.129034
H -1.378347 -0.414405 1.256382
H -2.750497 1.481292 -0.723848
H -2.237866 1.894417 0.919206
H -3.537540 0.720364 0.667305
H -2.924050 -1.640875 -0.282922
H -2.145618 -0.863620 -1.670323
H -1.231082 -1.988429 -0.643915
H 3.312310 0.195229 0.942216
H 3.234873 -0.907404 -0.447915
H 3.811784 0.769534 -0.675442