11
H6 C2 S1 O2
S 0.000000 0.189928 0.000001
O 0.000013 0.909131 -1.251342
O 0.000015 0.909085 1.251372
C 1.408995 -0.912749 -0.000015
C -1.409018 -0.912719 -0.000014
H 1.394863 -1.524372 0.899856
H 1.394998 -1.524168 -0.900026
H 2.286391 -0.267403 0.000130
H -2.286398 -0.267352 0.000111
H -1.395027 -1.524152 -0.900016
H -1.394911 -1.524329 0.899867