15
H5 C4 O3 F3
F -1.455711 0.111664 1.371550
F -2.221552 -1.332441 -0.051104
F -2.961769 0.710645 -0.081473
O 0.366926 -0.425467 -0.720002
O 2.411651 -0.725190 -0.098624
O 1.558667 1.366284 0.020574
C -0.794329 0.372828 -0.894625
C -1.862254 -0.047453 0.101658
C 1.463464 0.195516 -0.231524
C 3.669917 -0.243677 0.407031
H -1.176369 0.199097 -1.899725
H -0.570020 1.427718 -0.747513
H 4.087448 0.504776 -0.264833
H 3.539242 0.189337 1.397543
H 4.312242 -1.118035 0.452964