23
H14 C6 S1 O2
S 0.727384 0.174044 0.150034
O 0.768890 0.030891 1.590011
O 0.823195 1.493895 -0.437018
C -2.059046 -0.128229 0.215602
C -0.770800 -0.641738 -0.447249
C 2.049549 -0.836901 -0.551031
C -2.449221 1.274815 -0.257559
C -3.189868 -1.130218 -0.043900
C 3.413485 -0.262758 -0.184521
H -1.876733 -0.095118 1.293340
H -0.792337 -0.507916 -1.531022
H -0.625530 -1.700782 -0.224188
H 1.914309 -1.844730 -0.156562
H 1.892341 -0.849425 -1.630831
H -2.644995 1.281005 -1.333757
H -3.360460 1.600828 0.247588
H -1.666722 2.004961 -0.057429
H -2.948603 -2.120886 0.347373
H -4.111330 -0.796329 0.436608
H -3.392256 -1.229154 -1.114083
H 3.549142 -0.240976 0.896376
H 4.198414 -0.884633 -0.616941
H 3.525336 0.750347 -0.569014