35
H22 C10 S1 O2
S 0.086290 -0.490623 -0.445596
O 0.128877 0.236506 -1.702734
O 0.402587 -1.908711 -0.450244
C -1.696074 -0.381845 0.172522
C 1.362340 0.324091 0.676321
C -2.129711 1.045622 0.565728
C 2.727354 -0.278157 0.246802
C -2.499245 -0.909225 -1.027827
C -1.892310 -1.334232 1.357382
C 1.338453 1.841290 0.490706
C 1.118527 -0.059398 2.138353
C -2.227808 2.104926 -0.532868
C 3.259251 0.030872 -1.152447
H -3.119177 0.929404 1.021886
H -1.487979 1.405996 1.372641
H 3.440303 0.101730 0.986513
H 2.681464 -1.358558 0.387012
H -2.249195 -1.949176 -1.235210
H -3.561207 -0.856130 -0.775926
H -2.324780 -0.327538 -1.929281
H -1.458513 -2.311172 1.152488
H -1.467297 -0.948403 2.281851
H -2.964933 -1.464146 1.519784
H 0.441049 2.292838 0.910956
H 2.196990 2.269706 1.014570
H 1.402634 2.120521 -0.557949
H 0.216171 0.396467 2.542719
H 1.058484 -1.139851 2.266586
H 1.958899 0.301002 2.736103
H -2.980377 1.841268 -1.276580
H -2.525248 3.059122 -0.093315
H -1.284900 2.247006 -1.057084
H 3.360860 1.103041 -1.326875
H 4.250412 -0.413652 -1.262453
H 2.619338 -0.375524 -1.933101