29
H12 C8 S1 O2 F6
S 0.000108 0.000391 -0.460459
F 5.087337 -0.799336 0.889262
F 5.328564 0.882625 -0.461101
F 3.836095 0.958232 1.112172
F -5.087543 0.798560 0.889631
F -5.328526 -0.882651 -0.461684
F -3.836204 -0.959056 1.111668
O -0.588019 -1.099395 -1.197445
O 0.588393 1.101011 -1.196058
C 1.239375 -0.685290 0.659169
C -1.239437 0.684798 0.659616
C 2.373768 -1.379568 -0.105620
C -2.373865 1.379503 -0.104752
C 3.412160 -0.460245 -0.763266
C -3.412200 0.460508 -0.762955
C 4.412170 0.144438 0.193779
C -4.412249 -0.144756 0.193666
H 1.594333 0.127988 1.290246
H 0.703386 -1.408982 1.274609
H -1.594325 -0.129106 1.289918
H -0.703678 1.408030 1.275795
H 2.877040 -2.056180 0.587638
H 1.932951 -2.010696 -0.878966
H -2.877184 2.055680 0.588892
H -1.933100 2.011125 -0.877727
H 3.997950 -1.035105 -1.482250
H 2.935461 0.356721 -1.304172
H -3.997969 1.035751 -1.481655
H -2.935424 -0.356108 -1.304324