15
H8 C4 O3
O 1.945807 -0.356925 -0.482178
O -1.580827 -0.630447 0.184072
O -0.404395 1.199306 -0.404449
C 0.732705 -0.933041 -0.103481
C -0.450825 0.029570 -0.135626
C 2.534732 0.479542 0.502107
C -2.788411 0.149356 0.187731
H 0.520690 -1.743433 -0.804228
H 0.780611 -1.378321 0.900698
H 3.496888 0.798223 0.105235
H 1.919179 1.359434 0.702970
H 2.699312 -0.073617 1.435824
H -2.717344 0.958356 0.913940
H -2.971528 0.572033 -0.799459
H -3.581697 -0.540715 0.461077