21
H12 C6 O3
O 1.129341 0.525560 0.354219
O -2.389137 -0.155532 -0.257759
O 1.739922 -1.123141 -1.064445
C -0.159808 0.677904 -0.296442
C -1.139886 -0.266721 0.390153
C -0.548149 2.137806 -0.186225
C 1.984888 -0.400035 -0.133332
C -3.365731 -1.031027 0.265157
C 3.275955 -0.391814 0.642037
H -0.056053 0.376748 -1.338545
H -0.761494 -1.294645 0.323810
H -1.228066 -0.000690 1.454059
H 0.173884 2.767360 -0.707355
H -1.530593 2.288218 -0.632588
H -0.589382 2.449790 0.859354
H -3.060348 -2.079638 0.160123
H -3.559573 -0.827834 1.326270
H -4.281794 -0.868926 -0.300817
H 3.752913 0.585768 0.557154
H 3.078608 -0.566597 1.700455
H 3.937280 -1.161332 0.253874