13
H6 C2 S1 O4
S 0.000001 0.228491 0.000002
O -1.152330 -0.853241 -0.007758
O 1.152335 -0.853241 0.007556
O -0.008784 0.957450 1.231814
O 0.008771 0.957682 -1.231672
C -2.502921 -0.330241 -0.000872
C 2.502925 -0.330235 0.000907
H -2.672703 0.256496 0.901046
H -2.676447 0.270899 -0.892621
H -3.141199 -1.208508 -0.006843
H 2.672699 0.256947 -0.900724
H 2.676455 0.270464 0.892950
H 3.141205 -1.208504 0.006430