15
H8 C4 S1 O2
S 0.962811 -0.044752 -0.000083
O 1.712911 1.188581 0.000037
O 1.646441 -1.313461 0.000095
C -1.372783 0.443421 0.000003
C -0.423449 0.045685 1.168658
C -0.423537 0.045613 -1.168706
C -2.732572 -0.239231 0.000067
H -1.499940 1.526086 -0.000009
H -0.627339 -0.943447 1.577410
H -0.281465 0.772833 1.964083
H -0.281611 0.772716 -1.964179
H -0.627493 -0.943538 -1.577381
H -3.311271 0.042092 0.881991
H -3.311214 0.041920 -0.881948
H -2.625420 -1.326515 0.000172