18
H12 C5 O1
C 1.008018 0.072717 -0.017340
C 2.529585 0.071392 -0.050317
C 3.092417 -0.437609 -1.371020
C 4.614360 -0.447662 -1.412233
C 5.161066 -0.948380 -2.737316
O 6.575239 -1.010333 -2.765691
H 0.627800 0.441098 0.937021
H 0.611993 -0.934788 -0.167166
H 0.599212 0.708490 -0.806740
H 2.915392 -0.547359 0.766573
H 2.902764 1.084623 0.132843
H 2.706807 0.182151 -2.189414
H 2.717493 -1.451353 -1.555187
H 5.009750 -1.078336 -0.609893
H 4.990587 0.566895 -1.228783
H 4.782700 -0.323822 -3.558389
H 4.817394 -1.968642 -2.922774
H 6.920511 -0.127925 -2.615022