15
H10 C4 O1
O 0.860436 0.050951 0.026204
C 0.993428 -0.517347 -2.356098
C 2.517365 -0.573607 -2.439887
C 0.424869 -0.843935 -0.983300
C 3.106757 -1.944335 -2.128608
H 0.563480 -1.221128 -3.078049
H 0.652361 0.481721 -2.641364
H 2.821248 -0.271991 -3.445622
H 2.948450 0.178081 -1.769599
H 0.657894 -1.879626 -0.704875
H -0.662439 -0.755259 -1.005613
H 2.681680 -2.710204 -2.782498
H 4.188729 -1.948902 -2.270375
H 2.912601 -2.251724 -1.098028
H 1.800861 -0.076574 0.165931