11
H8 C3
C 0.969599 -0.078834 0.044409
C 2.491498 -0.067861 0.082823
C 3.036460 0.319704 1.450517
H 0.592947 -0.358360 -0.941275
H 0.565427 0.906826 0.289283
H 0.565565 -0.789331 0.770216
H 2.870872 0.627421 -0.671852
H 2.870938 -1.055657 -0.194958
H 2.695712 1.317613 1.738479
H 4.127965 0.323229 1.463650
H 2.695389 -0.378597 2.219215