20
H14 C6
C 1.013847 -0.013082 0.091418
C 2.535540 0.015739 0.071427
C 3.096582 1.180471 -0.733648
C 4.618130 1.220917 -0.761511
C 5.179172 2.385649 -1.566586
C 6.700865 2.414470 -1.586578
H 0.635041 -0.855133 0.673537
H 0.610384 -0.099296 -0.920691
H 0.610476 0.903329 0.529666
H 2.915885 -0.924034 -0.343079
H 2.915951 0.071363 1.097021
H 2.716034 2.122084 -0.319686
H 2.716114 1.125927 -1.760824
H 4.998678 0.279304 -1.175473
H 4.998598 1.275461 0.265664
H 4.798827 3.325422 -1.152080
H 4.798761 2.330025 -2.592180
H 7.104328 2.500684 -0.574468
H 7.079671 3.256521 -2.168696
H 7.104236 1.498059 -2.024825