17
H12 C5
C 0.903377 -0.064593 -0.055697
C 2.421783 -0.085810 0.060431
C 2.968818 0.485098 1.369917
C 2.497792 -0.307698 2.585028
C 4.491980 0.542544 1.329592
H 0.580647 -0.400532 -1.042770
H 0.513909 0.946030 0.094475
H 0.429869 -0.715695 0.681488
H 2.852159 0.481635 -0.771248
H 2.785987 -1.114242 -0.052764
H 2.592031 1.511478 1.467034
H 2.814765 -1.352651 2.506624
H 1.411563 -0.294210 2.689077
H 2.922407 0.099345 3.505457
H 4.911897 -0.463610 1.234422
H 4.897839 0.986216 2.241528
H 4.846281 1.132524 0.481110