30
H18 C12
C -0.679964 1.214454 0.036438
C -1.379323 0.003921 -0.011680
C 0.718690 1.214897 0.014226
C -0.680122 -1.207600 -0.016225
C 1.417924 0.003324 0.009766
C 0.718582 -1.207169 -0.038359
C -1.435236 2.520004 0.133903
C -2.889177 0.005474 -0.080296
C 1.473882 2.523496 -0.027059
C -1.435335 -2.516178 0.024940
C 2.927780 0.001663 0.078578
C 1.473664 -2.512826 -0.135826
H -0.861860 3.271791 0.673872
H -1.668211 2.932937 -0.853004
H -2.377731 2.395210 0.664794
H -3.263005 -0.857465 -0.629184
H -3.344373 -0.018123 0.915210
H -3.263185 0.893250 -0.587833
H 1.701874 2.896671 0.976693
H 2.418906 2.420417 -0.558028
H 0.902649 3.296146 -0.539233
H -1.663705 -2.889004 -0.978860
H -0.863942 -3.289022 0.536629
H -2.380174 -2.413209 0.556277
H 3.383123 0.023732 -0.916894
H 3.301735 0.865238 0.626347
H 3.301522 -0.885495 0.587419
H 2.416952 -2.387945 -0.665258
H 1.705028 -2.926658 0.851087
H 0.900791 -3.263973 -0.677249