20
H14 C6
C 1.020249 0.074137 -0.028421
C 0.501394 1.361563 0.600784
C 0.489063 -0.158188 -1.437074
C 0.942367 1.578813 2.046041
C 1.014277 -1.441605 -2.064875
C 2.446960 1.753660 2.213398
H 0.742291 -0.775917 0.607288
H 2.115144 0.086668 -0.060621
H 0.825386 2.215341 -0.006899
H -0.593310 1.355753 0.560017
H -0.605587 -0.183705 -1.408884
H 0.758151 0.696293 -2.067431
H 0.434157 2.463631 2.440513
H 0.602408 0.734219 2.655403
H 0.734123 -2.312450 -1.466511
H 0.618658 -1.587781 -3.071786
H 2.105057 -1.425441 -2.133894
H 2.813557 2.578046 1.595390
H 2.705140 1.974975 3.250766
H 2.993655 0.853888 1.923934