17
H12 C5
C 1.006344 -0.057209 -0.107123
C 0.498057 1.346650 0.192681
C 0.516767 -0.608052 -1.439763
C 0.994838 1.884901 1.527075
C 1.031911 -2.011419 -1.726663
H 0.697399 -0.733578 0.699273
H 2.103204 -0.054419 -0.097930
H 0.807294 2.020397 -0.613686
H -0.597240 1.341748 0.182996
H -0.578558 -0.609791 -1.447047
H 0.826153 0.068669 -2.243580
H 2.086859 1.927768 1.549238
H 0.617709 2.890953 1.720334
H 0.672835 1.243589 2.351626
H 0.709965 -2.712045 -0.951859
H 0.668305 -2.384936 -2.685819
H 2.124517 -2.028837 -1.754164