12
H8 C3 O1
O 1.069466 0.004268 0.044937
C 0.657718 1.359600 0.213867
C 1.124260 1.904513 1.552689
C 1.123978 2.216370 -0.950377
H -0.434426 1.312133 0.207925
H 2.217395 1.944633 1.587762
H 0.745545 2.915759 1.714688
H 0.776342 1.268737 2.367822
H 0.778637 1.797717 -1.896488
H 0.741999 3.235390 -0.861256
H 2.217002 2.267441 -0.972891
H 2.031054 -0.016740 0.041981