11
H5 C5 N1
N 1.384441 0.068692 0.062113
C -1.395377 -0.071169 -0.020953
C -0.749195 1.153885 0.006684
C -0.629112 -1.225151 -0.006294
C 0.636628 1.169581 0.047740
C 0.751283 -1.101683 0.035276
H -2.477130 -0.125607 -0.053302
H -1.304018 2.083497 -0.003282
H -1.087459 -2.205759 -0.026656
H 1.172183 2.113998 0.070136
H 1.379267 -1.987544 0.047598