10
H5 C4 N1
N -1.132026 -0.000246 0.002851
C -0.347799 -1.116414 0.001857
C -0.348181 1.116189 0.001367
C 0.960779 -0.710565 -0.000277
C 0.960536 0.710785 -0.000582
H -2.135744 -0.000420 0.004455
H -0.782334 -2.103195 0.002757
H -0.783050 2.102823 0.001836
H 1.822941 -1.359384 -0.001497
H 1.822478 1.359897 -0.002078