13
H6 C5 N2
N 1.395103 0.094026 -0.053357
N -1.376832 -0.072652 0.081376
C 0.642207 1.192625 -0.057142
C 1.336246 2.517130 -0.135634
C -0.746226 1.091853 0.011008
C 0.766657 -1.072679 0.016993
C -0.614595 -1.160040 0.084194
H 2.006423 2.639983 0.716504
H 1.942697 2.569334 -1.040966
H 0.623450 3.341087 -0.142498
H -1.360196 1.987269 0.007967
H 1.379613 -1.968081 0.019851
H -1.111297 -2.122486 0.140955