12
H6 C6
C -0.758925 1.168076 0.002448
C -1.387722 -0.069583 0.003629
C 0.627324 1.242382 0.000896
C -0.630228 -1.232913 0.003254
C 1.384819 0.079051 0.000521
C 0.756022 -1.158607 0.001702
H -1.350323 2.076368 0.002738
H -2.470022 -0.127616 0.004836
H 1.118210 2.208706 -0.000022
H -1.121113 -2.199237 0.004172
H 2.467119 0.137085 -0.000686
H 1.347420 -2.066900 0.001412