11
H7 C3 N1
N 0.027171 0.763800 -0.003047
C 0.754891 -0.491972 0.163257
C -0.692988 -0.508425 -0.107462
C 1.735271 -0.932655 -0.887184
H 1.072581 -0.663377 1.187407
H -1.399214 -0.705117 0.690437
H -1.013328 -0.832688 -1.092022
H 0.199474 1.136062 -0.930304
H 2.676767 -0.386201 -0.797645
H 1.954659 -1.997929 -0.791017
H 1.332886 -0.759170 -1.888529