12
H8 C3 O1
O -0.940099 0.568128 -1.086972
C 0.984314 2.082692 -1.006871
C 0.476800 0.655077 -1.096372
C 2.504204 2.150643 -1.057106
H 0.549302 2.661408 -1.826356
H 0.622678 2.531063 -0.074935
H 0.904446 0.055014 -0.282339
H 0.796659 0.202112 -2.037812
H 2.884935 1.728675 -1.990403
H 2.856737 3.180585 -0.989615
H 2.951608 1.590580 -0.232257
H -1.258234 0.933922 -0.257963