13
H8 C5
C 0.967253 0.008388 -0.067963
C 0.466070 -0.162672 1.338589
C 0.507391 1.306428 -0.669993
C -0.341117 -1.131851 1.741689
C 1.309388 2.281794 -1.068520
H 0.611031 -0.827480 -0.677824
H 2.061151 -0.020681 -0.075503
H 0.798338 0.588235 2.052418
H -0.569907 1.429191 -0.760308
H -0.675157 -1.200882 2.770246
H -0.694823 -1.894668 1.054740
H 0.919065 3.200349 -1.490650
H 2.388646 2.193821 -0.988763