11
H6 C4 O1
O 1.062878 -0.019753 0.016096
C 4.302756 -0.985918 1.083569
C 5.137563 -1.812728 1.996345
C 2.971348 -0.962639 1.058191
C 2.266745 -0.101980 0.107651
H 4.837518 -0.348977 0.380279
H 5.790609 -2.470851 1.418193
H 5.789213 -1.172445 2.595713
H 4.526794 -2.419249 2.664413
H 2.367791 -1.568367 1.727322
H 2.922885 0.498077 -0.554433