11
H6 C4 O1
O 0.984637 0.053320 0.005679
C 0.565140 -0.971276 -0.882368
C 1.010175 -0.700892 -2.312734
C 1.022610 -2.294471 -0.422191
C 1.419133 -3.363889 -0.056229
H -0.525792 -0.954275 -0.834532
H 2.100328 -0.708567 -2.379652
H 0.620048 -1.463904 -2.987405
H 0.641816 0.275115 -2.629042
H 1.946321 0.057735 0.030362
H 1.765673 -4.316535 0.274223