11
H6 C4 O1
O 1.145806 -0.086006 0.072743
C 0.589317 -0.889605 -1.002709
C 1.020082 -0.272560 -2.305303
C 0.857921 -0.498279 1.264604
C 0.605594 -0.859374 2.378833
H 0.963781 -1.908968 -0.887660
H -0.496856 -0.894196 -0.889925
H 2.107195 -0.263129 -2.388324
H 0.615173 -0.856374 -3.132788
H 0.650524 0.749695 -2.390206
H 0.387662 -1.171524 3.372516