15
H10 C5
C 1.034152 -0.108989 -0.043753
C 0.608243 -0.394565 -1.460855
C -0.132260 0.196370 0.894650
C -0.275331 -1.592163 -1.665957
C 0.997796 0.371606 -2.473505
H 1.733716 0.730051 -0.043011
H 1.580334 -0.978105 0.340176
H 0.231527 0.438788 1.894467
H -0.711012 1.048067 0.529857
H -0.808945 -0.655107 0.987662
H -1.238657 -1.460780 -1.166703
H -0.463804 -1.771998 -2.724386
H 0.184413 -2.487375 -1.237206
H 1.636422 1.234219 -2.315543
H 0.693375 0.161470 -3.493305