15
H10 C5
C 0.984810 -0.027848 -0.053443
C 0.465964 -0.788844 1.166058
C 0.553839 -0.666774 -1.365601
C 0.927586 -0.191578 2.459197
C 0.133679 0.284600 3.406767
H 2.077584 0.021948 -0.007668
H 0.627519 1.005462 -0.006949
H -0.628007 -0.820486 1.145065
H 0.814501 -1.826630 1.104242
H 0.930100 -0.107769 -2.224164
H 0.927336 -1.691013 -1.443163
H -0.535679 -0.704717 -1.442974
H 2.006170 -0.144673 2.602229
H 0.531208 0.713377 4.319278
H -0.946940 0.259505 3.302665