15
H10 C5
C 0.904997 0.038403 -0.054071
C 0.426178 -1.125320 -0.870175
C 2.429047 0.139932 -0.044016
C -0.301636 -2.161980 -0.467962
C -0.842514 -2.424027 0.904113
H 0.532696 -0.023263 0.969908
H 0.491471 0.959249 -0.478882
H 0.735104 -1.105927 -1.914138
H 2.762476 1.018388 0.511474
H 2.874246 -0.743843 0.417968
H 2.821724 0.216819 -1.060802
H -0.544577 -2.918405 -1.210636
H -1.934371 -2.473827 0.882748
H -0.491408 -3.390130 1.275541
H -0.554873 -1.660269 1.625522