13
H8 C4 O1
O 2.118824 -1.200909 -0.435958
C 3.153893 0.134070 1.249368
C 2.220334 -0.114046 0.087382
C 4.031100 -1.050121 1.607708
C 1.427383 1.072203 -0.395678
H 3.752181 1.019185 1.009223
H 2.528776 0.433744 2.097892
H 4.662860 -1.337652 0.766407
H 4.676148 -0.806539 2.452697
H 3.426815 -1.916936 1.876194
H 2.099418 1.754006 -0.923123
H 0.641049 0.750083 -1.075010
H 1.001058 1.624292 0.443447