13
H8 C4 O1
O 1.874582 1.701188 2.909573
C 3.982324 0.035405 1.934294
C 3.099030 0.865942 1.020552
C 5.022745 -0.759569 1.158345
C 2.048615 1.675213 1.717000
H 4.473864 0.694645 2.653996
H 3.355318 -0.639724 2.521828
H 2.578357 0.238123 0.286335
H 3.690596 1.567623 0.418912
H 5.678187 -0.097689 0.586749
H 5.648553 -1.350530 1.828811
H 4.548065 -1.446184 0.452906
H 1.403994 2.281627 1.050250