13
H8 C4 O1
O 2.224086 -1.212306 0.377669
C 3.068022 1.014272 0.759209
C 3.919397 0.456620 1.885858
C 3.890201 1.759632 -0.294112
C 2.244181 -0.045598 0.078498
H 2.331329 1.721079 1.164771
H 4.651231 -0.255345 1.498557
H 4.459232 1.261721 2.386876
H 3.309657 -0.063398 2.625126
H 3.260806 2.139640 -1.101607
H 4.403776 2.608033 0.159408
H 4.645244 1.101363 -0.730599
H 1.623236 0.321666 -0.764724