13
H8 C4 O1
O -0.445718 1.018986 -2.358152
C 1.006679 2.232528 -0.823997
C 0.373181 0.918781 -1.199803
C 1.872209 2.869539 -1.870070
C 0.795806 2.769301 0.371595
H -0.196301 0.521220 -0.353060
H 1.149164 0.192510 -1.455707
H 1.305448 3.035252 -2.788439
H 2.274995 3.823181 -1.529256
H 2.706221 2.210418 -2.127568
H 0.161035 2.281856 1.104013
H 1.255861 3.707579 0.662328
H -1.162308 1.628618 -2.162654