18
H5 C5 O1 F7
F 2.581055 0.149644 3.560060
F 0.811732 -0.451118 2.421808
F 0.940349 4.129500 0.007394
F 2.751157 4.673696 1.098032
F 2.791194 4.530318 -1.081267
F 4.125915 -1.673228 2.112505
F 2.376527 -2.561480 3.129715
O 2.558581 0.462596 1.325010
C 2.671398 2.500185 0.130012
C 2.115941 1.840769 1.386012
C 2.182060 -0.337018 2.346476
C 2.288221 3.960844 0.038723
C 2.765798 -1.745023 2.113663
H 3.763543 2.438181 0.120020
H 2.289925 1.998457 -0.764194
H 1.022785 1.870016 1.405988
H 2.511265 2.307552 2.292128
H 2.423591 -2.160313 1.161772