15
H6 C4 O1 F4
F 1.034106 -0.107912 0.125015
F 2.693577 -0.989036 -0.995696
F 2.350902 3.425063 -3.186843
F 2.393815 3.942309 -1.031945
O 2.783044 1.195617 -0.444740
C 2.173583 1.663933 -1.655728
C 2.409987 -0.045134 -0.018673
C 2.799030 3.011409 -1.953491
C 3.094235 -0.402945 1.274553
H 2.381938 0.978628 -2.483158
H 1.093261 1.783280 -1.529312
H 3.892849 3.000507 -1.964485
H 2.821082 0.325964 2.040921
H 2.774210 -1.400903 1.581917
H 4.176594 -0.391251 1.127224