21
H9 C6 O1 F5
F 4.800481 -1.377579 -2.069348
F 4.821326 0.780666 -1.616383
F 6.485196 -0.697051 -0.029895
F 4.839174 0.202930 1.086878
F 4.815839 -1.934840 0.639410
O 2.309281 -0.184935 -2.245562
C 4.398903 -0.436542 -1.166602
C 2.884322 -0.456839 -0.997287
C 0.880581 -0.169357 -2.218434
C 0.376555 0.171393 -3.614212
C 5.159406 -0.721607 0.156240
C 0.802643 1.567273 -4.082553
H 2.593925 -1.448774 -0.617166
H 2.612411 0.300704 -0.245811
H 0.507875 -1.155597 -1.895900
H 0.535028 0.581616 -1.486990
H 0.745533 -0.591598 -4.311708
H -0.719154 0.090832 -3.602383
H 1.893659 1.651596 -4.108374
H 0.418061 1.777911 -5.087074
H 0.419458 2.342876 -3.406416