24
H10 C7 O1 F6
F 2.109466 -0.800410 3.305611
F 0.694971 -1.025659 1.650999
F 4.118830 -2.005278 1.799039
F 3.083299 -4.450530 1.453047
F 2.256971 -3.563893 3.263361
F 1.032712 -3.708778 1.459837
O 2.554935 0.211323 1.341709
C 2.720599 2.582071 0.922194
C 2.029274 1.507150 1.756719
C 2.038928 -0.876400 1.937025
C 2.796143 -2.114888 1.419753
C 4.234802 2.609144 1.179864
C 2.400867 2.432273 -0.572730
C 2.277206 -3.473326 1.924025
H 2.290906 3.532351 1.274763
H 0.946120 1.508372 1.593224
H 2.236810 1.635611 2.823783
H 2.736023 -2.119617 0.327772
H 4.700153 1.671390 0.856973
H 4.705146 3.430470 0.627061
H 4.457284 2.746591 2.245246
H 1.318740 2.431298 -0.753764
H 2.838973 3.257842 -1.145252
H 2.810682 1.494736 -0.964812