21
H8 C6 O1 F6
F 5.072208 -1.718928 -1.764659
F 4.756178 -0.832591 0.204902
F 4.802710 0.435972 -1.571743
F 0.337132 -4.779272 -2.622951
F 1.954793 -5.274964 -1.247893
F -0.097113 -5.867990 -0.776636
O 1.070104 -2.470037 -1.121279
C 2.872627 -0.928872 -1.267752
C 2.443785 -2.308128 -0.753260
C 4.374845 -0.760641 -1.099681
C 2.106545 0.213421 -0.587643
C 0.408501 -3.573298 -0.560215
C 0.658035 -4.877823 -1.316691
H 2.693099 -0.903900 -2.349463
H 3.057477 -3.098787 -1.196837
H 2.545033 -2.356887 0.341551
H 2.394329 1.183644 -1.002380
H 1.034546 0.070402 -0.744024
H 2.301877 0.225628 0.490636
H 0.685883 -3.741414 0.490573
H -0.664951 -3.372564 -0.618035