24
H11 C7 O1 F5
F 2.375758 1.772089 -2.846799
F 1.022584 1.457877 -1.157781
F 5.238326 1.364794 -0.388705
F 4.975941 2.624147 -2.149017
F 5.112731 3.529189 -0.167067
O 2.855468 0.152459 -1.351957
C 2.811417 -2.228741 -1.632358
C 2.252852 -0.910242 -2.145509
C 2.522508 -2.513379 -0.148997
C 2.366731 1.393381 -1.517568
C 3.107332 2.416548 -0.666993
C 4.613950 2.467467 -0.856854
C 1.029596 -2.584348 0.197383
H 2.380451 -3.024985 -2.256514
H 3.895122 -2.239368 -1.805798
H 1.165532 -0.854553 -2.037808
H 2.515069 -0.746231 -3.195241
H 3.002598 -3.465287 0.113904
H 3.007057 -1.742128 0.462238
H 2.703065 3.403372 -0.901783
H 2.911830 2.196858 0.384769
H 0.510185 -3.321227 -0.429866
H 0.885301 -2.877549 1.243815
H 0.532785 -1.616671 0.059314