21
H6 C6 O1 F8
F 1.178706 -0.450289 -0.086069
F 3.171466 -1.281584 -0.434236
F 2.278308 0.771366 4.187658
F 3.908974 2.026428 3.459861
F 1.926167 2.887138 3.774776
F 1.843068 2.964641 -2.469116
F 3.935710 2.485516 -2.849544
F 2.398432 1.858585 -4.272288
O 2.804761 0.897283 -0.872706
C 2.927249 0.210754 1.395038
C 2.195309 1.455789 1.907670
C 2.526064 -0.132839 -0.022926
C 2.577897 1.784855 3.332980
C 2.495123 0.685043 -2.250418
C 2.674426 2.018480 -2.955131
H 2.699450 -0.661625 2.013761
H 4.010093 0.363408 1.402313
H 2.432885 2.328568 1.293273
H 1.111528 1.308516 1.886723
H 3.177405 -0.043383 -2.697468
H 1.458528 0.362331 -2.379761