21
H10 C6 O1 F4
F 4.898575 0.684459 1.411536
F 5.043226 0.606804 -0.792882
F 6.415002 2.688829 0.275268
F 4.638856 3.386840 -0.847169
O 2.424305 2.050128 1.127681
C 4.490560 1.296622 0.253049
C 2.976786 1.230618 0.124488
C 0.995782 2.090195 1.110281
C 0.522625 3.033670 2.207570
C 5.053239 2.728090 0.281601
C 0.977613 4.481915 1.995401
H 2.700850 1.576425 -0.882401
H 2.677083 0.177227 0.236387
H 0.652005 2.440079 0.121992
H 0.600668 1.073803 1.268982
H -0.574231 2.982428 2.241309
H 0.888907 2.657718 3.171644
H 4.708716 3.275593 1.160870
H 0.604555 4.876478 1.041390
H 0.606414 5.131486 2.796256
H 2.070322 4.549991 1.981717