19
H5 C5 O2 F7
F 0.973087 -0.281531 -0.008946
F 2.757762 -1.441693 -0.495587
F 2.324722 1.064897 1.970949
F 2.299474 -1.102676 2.197700
F 2.024860 0.030273 -2.725382
F 1.086000 1.771853 -1.799919
F 5.083733 1.474374 2.839392
O 2.830055 0.799606 -0.746608
O 4.185915 -0.116522 1.466643
C 2.326024 -0.246307 -0.016722
C 2.825627 -0.086277 1.449159
C 2.288733 1.152366 -1.991410
C 3.254729 2.061000 -2.704760
C 4.818853 0.126251 2.705725
H 3.442884 2.943752 -2.089643
H 4.191766 1.528371 -2.880928
H 2.811932 2.361221 -3.657159
H 4.190315 -0.184469 3.543856
H 5.768728 -0.407240 2.667900