24
H13 C7 O1 F3
F 4.877038 1.096756 0.472137
F 4.221681 -0.736740 1.462933
F 4.602459 1.058784 2.636740
O 0.983268 2.557287 0.702590
C 2.373490 2.498411 1.026573
C 2.631143 1.003641 1.271554
C 0.572971 3.709382 -0.029816
C 2.710348 3.389922 2.223820
C -0.919265 3.591563 -0.316736
C 4.079080 0.614248 1.463346
C -1.777000 3.589335 0.953623
H 2.961513 2.817216 0.150965
H 2.262657 0.442041 0.408198
H 2.075304 0.665621 2.152183
H 0.772299 4.627113 0.546456
H 1.145999 3.770942 -0.970224
H 3.780423 3.361410 2.449130
H 2.438199 4.430087 2.019019
H 2.158042 3.056689 3.109821
H -1.204591 4.431860 -0.964826
H -1.092144 2.671717 -0.890671
H -1.628370 4.512540 1.529289
H -2.843097 3.514179 0.709412
H -1.512378 2.745100 1.598303