24
H8 C7 O1 F8
F 1.015972 0.010715 0.171373
F 2.791664 -1.169831 0.750528
F 2.780714 1.036024 2.115141
F 4.344021 1.144016 0.557016
F 2.944186 3.120246 -3.679225
F 2.053199 3.172546 -6.252197
F 3.707477 1.765526 -6.049084
F 1.658735 1.022957 -6.231793
O 2.317706 0.803081 -2.168661
C 2.381854 -0.055596 0.065621
C 2.784043 -0.277638 -1.387908
C 2.977479 1.196760 0.765730
C 2.745064 0.754435 -3.517057
C 2.242292 2.026712 -4.176949
C 2.438949 2.537524 0.332863
C 2.425869 2.006334 -5.696890
H 3.877773 -0.366007 -1.430455
H 2.331564 -1.228340 -1.705885
H 3.841977 0.719043 -3.584710
H 2.327290 -0.123725 -4.032454
H 1.179783 2.181254 -3.963754
H 2.654419 2.711093 -0.722039
H 1.358588 2.568344 0.491970
H 2.921114 3.303816 0.946109