19
H2 C5 O2 F10
F 1.274228 -0.678814 0.503332
F 3.400004 -1.173233 0.582921
F 4.022646 1.559850 0.632188
F 1.894267 2.034934 0.583700
F 2.331848 -2.093355 -1.822146
F 0.774914 -0.612626 -2.221742
F 2.543159 0.840582 -3.780437
F 4.105776 -0.674563 -3.388508
F 1.674913 2.182833 3.747764
F 3.709135 1.494730 4.155592
O 2.645410 0.052289 -1.148746
O 2.704662 0.823818 2.303636
C 2.511042 -0.233676 0.194629
C 2.790907 1.088275 0.969827
C 2.116934 -0.784790 -2.109884
C 2.766186 -0.463838 -3.472368
C 2.870906 1.902453 3.180431
H 2.341745 -1.103575 -4.251840
H 3.266578 2.795358 2.692473