21
H9 C6 O1 F5
F 4.801709 0.131019 1.477032
F 4.941292 0.823872 -0.617812
F 6.375428 2.363014 1.091864
F 4.617745 3.457841 0.308290
F 0.195769 4.372175 2.297776
O 2.362595 1.561495 1.716163
C 4.410789 1.119674 0.608723
C 2.895587 1.139389 0.480746
C 0.933713 1.563934 1.747320
C 0.490629 2.133293 3.088321
C 5.015780 2.435158 1.128336
C 0.865431 3.595011 3.266724
H 2.623414 1.825048 -0.334160
H 2.572141 0.120836 0.217758
H 0.542721 2.177260 0.921970
H 0.561672 0.535245 1.622615
H -0.597583 2.026977 3.177716
H 0.949382 1.550524 3.898091
H 4.691194 2.648517 2.148704
H 0.560823 3.972671 4.248537
H 1.937694 3.759195 3.122185