28
H14 C8 O2 F4
F 0.272558 1.774757 -2.186242
F 0.461509 2.386465 -4.304255
F -2.087233 2.541077 -3.347620
F -1.865985 0.953810 -4.875182
O 0.185141 -1.004210 -3.110228
O 0.561520 -1.865426 1.006312
C 0.136995 -2.507347 -1.258522
C 0.794884 -1.261472 -1.834052
C 0.707211 0.092913 -3.825770
C 0.749047 -2.919849 0.074428
C -0.008256 1.397817 -3.481396
C -1.539451 1.318101 -3.595445
C 1.087638 -2.143029 2.298618
C 0.824810 -0.941900 3.191947
H -0.935075 -2.320425 -1.123388
H 0.240196 -3.333554 -1.973305
H 1.875620 -1.425319 -1.977785
H 0.663141 -0.408661 -1.160700
H 0.550702 -0.100774 -4.890764
H 1.780940 0.244175 -3.643828
H 0.269147 -3.842963 0.440636
H 1.827267 -3.131767 -0.042724
H -1.956069 0.586136 -2.900306
H 0.608387 -3.048433 2.709292
H 2.170067 -2.345636 2.224948
H -0.250691 -0.748609 3.267414
H 1.218906 -1.122348 4.199012
H 1.307475 -0.047419 2.783504