25
H9 C7 O2 F7
F 3.306036 -0.714267 3.490107
F 1.477095 -1.126325 2.372488
F 3.314884 -3.155547 2.393130
F 2.827100 -2.368318 0.393547
F 5.451089 -3.168378 0.819901
F 5.208224 -1.078170 0.260345
F 5.682267 -1.605780 2.325264
O 3.033986 0.227573 1.457384
O 2.671692 4.277885 2.585618
C 2.813863 -0.851690 2.216689
C 3.471325 -2.100110 1.556933
C 2.441485 1.484671 1.906118
C 2.928304 2.557835 0.946584
C 2.309677 3.914267 1.262076
C 4.991505 -1.974494 1.233742
C 2.162632 5.540995 2.978760
H 1.351510 1.380774 1.878706
H 2.764309 1.686440 2.929535
H 4.020294 2.628883 1.004980
H 2.666635 2.273839 -0.080168
H 2.672715 4.668165 0.543955
H 1.209409 3.871135 1.170437
H 2.542646 6.345496 2.328853
H 1.061122 5.555179 2.953441
H 2.500612 5.716972 4.002925