15
H6 C4 O1 F4
F 5.241789 -0.286925 -2.175721
F 4.583320 -0.765395 -0.150393
F 4.889235 1.316605 -0.735417
F 0.857105 -2.475252 -4.105762
O 1.068054 -0.872975 -2.477386
C 2.982582 0.218420 -1.613899
C 2.432243 -1.114363 -2.110235
C 4.423883 0.120484 -1.170310
C 0.373717 -1.992869 -2.876974
H 2.394978 0.578362 -0.763973
H 2.926719 0.967257 -2.409541
H 2.995850 -1.473976 -2.977768
H 2.475540 -1.876693 -1.319127
H 0.475860 -2.825637 -2.166606
H -0.666414 -1.696896 -3.025204