15
H1 C4 O1 F9
F 1.239000 0.154387 0.625939
F 3.236109 -0.498776 1.206579
F 0.727628 -2.133659 -1.248564
F 2.349925 1.904677 -1.236472
F 3.053871 2.206288 0.807784
F 4.350914 1.243412 -0.660998
F 2.339366 -4.324222 -1.525032
F 2.922150 -2.717055 -2.884175
F 4.114643 -3.124085 -1.097876
O 2.557576 -0.837892 -0.913812
C 2.506200 -0.006286 0.168058
C 2.005806 -2.118340 -0.760518
C 3.083207 1.377680 -0.246569
C 2.863765 -3.086044 -1.597576
H 1.992340 -2.441962 0.283653