18
H7 C5 O1 F5
F 1.271569 -0.278342 0.052872
F 3.214558 -1.327068 0.162669
F 2.757281 0.294866 2.297582
F 4.395203 1.056946 1.016908
F 2.947560 4.501389 -1.957686
O 2.466875 1.671304 -1.590770
C 2.629142 -0.106092 -0.038339
C 3.005729 0.377344 -1.430461
C 3.041381 0.856327 1.089536
C 2.800524 2.281246 -2.828956
C 2.235361 3.682548 -2.844785
H 4.101931 0.380328 -1.510873
H 2.591440 -0.336355 -2.158659
H 2.532654 1.818537 1.004333
H 3.893158 2.319779 -2.958941
H 2.367449 1.708894 -3.666964
H 2.327724 4.118518 -3.846131
H 1.186989 3.683812 -2.528626