18
H10 C5 O1 F2
F 2.608194 -0.039512 -1.242521
F 2.961683 -1.232269 0.588185
O 2.532445 1.177881 2.088817
C 3.030524 1.156704 0.758780
C 2.391653 -0.074097 0.120619
C 4.556464 1.125824 0.670404
C 2.724370 2.402649 2.794704
C 1.967754 2.307973 4.109296
H 2.637231 2.024216 0.201162
H 1.314459 -0.133828 0.298350
H 4.870887 0.987766 -0.369441
H 4.985562 2.065303 1.031660
H 4.950487 0.301203 1.271357
H 3.795081 2.574019 2.979970
H 2.349260 3.242618 2.185562
H 2.339833 1.466407 4.703269
H 2.098089 3.229298 4.689151
H 0.898365 2.155864 3.928073