21
H10 C6 O1 F4
F 0.705378 1.570284 1.281454
F 2.218075 2.825829 2.217914
F 2.217351 0.670552 2.576666
F 4.902003 2.326505 1.395591
O 2.709992 2.445973 -0.470544
C 2.910652 1.379300 0.421415
C 2.748032 2.093095 -1.857828
C 2.636695 3.372773 -2.674447
C 2.010884 1.634618 1.637389
C 4.381013 1.184842 0.788655
C 3.820744 4.322743 -2.461801
H 2.552489 0.425322 -0.000509
H 3.692770 1.574580 -2.090217
H 1.915497 1.406675 -2.079605
H 2.559099 3.088674 -3.732946
H 1.696504 3.871745 -2.406898
H 4.502951 0.344781 1.480189
H 4.958057 1.000798 -0.123879
H 4.765552 3.845034 -2.753282
H 3.706127 5.232145 -3.062614
H 3.900694 4.613403 -1.409673