22
H6 C6 O2 F8
F 1.717643 -3.121871 -1.459021
F 1.098827 -1.029870 -1.314513
F 3.203815 -0.529673 4.795917
F 4.887977 -0.271554 3.425795
F 4.266795 -2.314774 -2.253910
F 2.631513 -1.513434 -3.502905
F 2.111728 1.879525 3.910224
F 4.183327 2.043486 4.657136
O 2.767601 -1.770201 0.011445
O 2.805019 -0.447742 2.576484
C 1.971156 -2.172102 1.149942
C 2.769652 -1.882523 2.397117
C 2.189382 -1.862477 -1.204269
C 3.554340 0.024515 3.594463
C 3.216832 -1.448243 -2.276917
C 3.409006 1.558683 3.649525
H 1.027257 -1.619170 1.154234
H 1.770975 -3.246540 1.087942
H 2.275457 -2.341087 3.259572
H 3.789063 -2.268759 2.305842
H 3.583630 -0.433329 -2.105170
H 3.711866 2.020799 2.706755