22
H11 C6 O2 F3
F 0.613377 2.433011 4.030146
F 0.450742 1.078613 2.329794
F -1.085278 2.599011 2.663051
O 2.392789 3.270991 1.961816
O 4.868733 1.473140 -0.951982
C 4.512114 2.513954 1.174192
C 3.011660 2.258520 1.151951
C 5.288448 1.452696 0.406022
C 0.999552 3.371230 1.862496
C 0.251102 2.360961 2.731916
C 5.540980 0.522154 -1.757594
H 4.718902 3.502409 0.747502
H 4.857937 2.524554 2.215604
H 2.783078 1.260839 1.550495
H 2.625191 2.315448 0.125206
H 6.371083 1.653472 0.471306
H 5.109747 0.451521 0.837922
H 0.638624 3.245464 0.830652
H 0.714601 4.365131 2.220168
H 6.627947 0.704503 -1.771965
H 5.360181 -0.505477 -1.402420
H 5.147221 0.625107 -2.772088