21
H10 C6 O1 F4
F 5.095762 -1.340064 2.070602
F 5.318092 -3.273369 3.138135
F 0.387997 -4.451732 -2.087091
F 2.082347 -5.230637 -3.290858
O 2.638614 -2.750541 0.000565
C 2.384190 -2.036200 1.205205
C 1.994804 -2.191343 -1.139172
C 3.170466 -2.703943 2.325774
C 2.305536 -3.076356 -2.339168
C 4.665145 -2.654219 2.092740
C 1.767877 -4.481749 -2.176039
H 1.307953 -2.055451 1.438128
H 2.690758 -0.984639 1.093807
H 0.907926 -2.137574 -0.971825
H 2.363484 -1.169507 -1.320404
H 2.873906 -3.754965 2.414307
H 2.959859 -2.206580 3.279564
H 1.863105 -2.647755 -3.245806
H 3.389645 -3.140713 -2.484072
H 4.997065 -3.122597 1.163438
H 2.140537 -5.012764 -1.297238