28
H4 C8 O2 F14
F 1.536581 2.257821 -3.128368
F 0.714313 1.468158 -1.268919
F 3.610690 -4.263364 -1.885104
F 5.136261 -2.801750 -1.343393
F 1.969105 3.899732 -1.059320
F 2.841097 2.288461 0.165718
F 4.498120 -4.615370 0.615218
F 4.146767 -2.504791 1.143663
F 4.610780 4.132161 -0.936565
F 4.944957 2.062717 -1.527237
F 4.044810 3.466429 -2.936544
F 1.725150 -4.846396 0.088581
F 2.331981 -4.370171 2.130255
F 1.469934 -2.821651 0.864543
O 2.629698 0.593070 -2.075046
O 2.975955 -2.157749 -1.395981
C 1.891722 1.705853 -1.924433
C 3.833827 -3.152464 -1.112868
C 2.692761 2.754813 -1.096963
C 3.705124 -3.539926 0.390462
C 2.021424 -0.497834 -2.806386
C 2.982937 -1.658460 -2.754513
C 4.110974 3.105869 -1.643059
C 2.266725 -3.899654 0.874640
H 1.065607 -0.761697 -2.344770
H 1.863838 -0.192586 -3.846100
H 2.646324 -2.449760 -3.432416
H 3.994187 -1.340175 -3.023560