18
H5 C5 O1 F7
F 2.146980 -0.371195 -0.305355
F 3.473207 -1.175310 1.233650
F 4.132736 0.479599 -0.036917
F 0.331439 0.025201 1.813070
F 1.748464 4.648893 2.286933
F 3.356099 3.474622 3.174452
F 3.829546 5.147991 1.842658
O 2.062650 2.125107 1.001260
C 2.543168 0.966328 1.661151
C 3.056794 -0.039270 0.618928
C 1.445959 0.405751 2.556155
C 2.967869 3.196852 0.831812
C 2.965343 4.125476 2.042955
H 3.399360 1.190399 2.310592
H 1.808689 -0.472567 3.099713
H 1.137060 1.187076 3.257113
H 3.995930 2.863229 0.654349
H 2.626916 3.774197 -0.030940