15
H5 C4 O1 F5
F 1.179305 -0.049418 -0.174569
F 2.908547 1.282350 -0.530686
F 2.800688 -0.798864 -2.269634
F 4.510457 -0.986056 -0.875065
F 4.055626 -1.429281 3.642948
O 2.649315 -1.363305 1.836876
C 2.543645 0.047964 -0.068794
C 2.961955 -0.047404 1.389796
C 3.146067 -1.040458 -0.975134
C 2.730931 -1.545917 3.203411
H 4.034832 0.151716 1.470947
H 2.399720 0.711534 1.950964
H 2.805460 -2.037579 -0.688042
H 2.156416 -0.789922 3.756048
H 2.394955 -2.562629 3.413216