18
H8 C5 O1 F4
F 2.862967 -1.381114 -0.453526
F 3.310410 -0.123998 1.315710
F 0.808951 2.847031 -1.712049
F -0.075251 1.481503 -0.248277
O 2.081484 2.105571 -0.004177
C 2.617183 0.953793 -0.702213
C 2.477581 -0.248217 0.231092
C 4.056725 1.255466 -1.084085
C 0.839338 2.526412 -0.362184
C 0.397461 3.702500 0.468205
H 2.011962 0.745795 -1.589403
H 1.459785 -0.395109 0.599412
H 4.512524 0.379621 -1.556246
H 4.078890 2.091996 -1.788200
H 4.637427 1.521119 -0.196512
H 0.378132 3.414595 1.521750
H 1.100186 4.527009 0.328022
H -0.601043 4.009524 0.149501