15
H3 C4 O1 F7
F 0.991103 0.335455 -0.030386
F 2.523265 -0.507046 1.278922
F 2.904804 1.922628 -1.271874
F 2.842037 2.160253 0.922607
F 2.947363 -2.494000 -3.154215
F 3.965824 -3.277449 -1.394709
F 2.072942 -4.158187 -2.040724
O 2.691327 -0.826576 -0.945925
C 2.321037 0.034350 0.032855
C 1.955320 -2.051185 -1.033233
C 3.175606 1.312760 -0.086961
C 2.755623 -2.994251 -1.918008
H 1.838296 -2.513428 -0.049540
H 0.977892 -1.879242 -1.491667
H 4.242881 1.084597 -0.031962