18
H10 C5 O1 F2
F 4.866876 -0.248719 -0.825700
F 4.657666 1.793119 -1.660289
O 2.365547 2.121105 0.035779
C 0.945782 2.359800 -0.041724
C 2.834780 0.878237 -0.441348
C 0.480646 2.552629 -1.487670
C 0.138720 1.294742 0.704252
C 4.339259 1.002906 -0.582858
H 0.843023 3.313741 0.487236
H 2.425467 0.612034 -1.425427
H 2.622572 0.060380 0.262587
H 0.499589 1.614817 -2.055390
H -0.551435 2.922516 -1.500567
H 1.118790 3.281257 -1.998056
H 0.527643 1.155064 1.719024
H -0.910272 1.604296 0.776572
H 0.162113 0.329115 0.184491
H 4.831242 1.422322 0.299224