21
H10 C6 O1 F4
F 2.651354 2.944184 1.737436
F 1.031229 1.473739 1.648473
F 4.467082 0.895004 2.318480
F 2.753267 1.026980 3.707381
O 2.749006 1.298546 0.193967
C 2.755395 1.562793 -2.205508
C 2.157393 2.067256 -0.894881
C 4.271019 1.806041 -2.264312
C 2.406341 0.088102 -2.456865
C 2.388402 1.630994 1.443558
C 3.122020 0.707723 2.436147
H 2.274834 2.170581 -2.987599
H 1.072044 1.921830 -0.867030
H 2.387189 3.125522 -0.733844
H 4.786530 1.229641 -1.488294
H 4.672811 1.502042 -3.237757
H 4.512542 2.865524 -2.113946
H 1.321980 -0.077497 -2.432077
H 2.775373 -0.233771 -3.437451
H 2.864656 -0.553688 -1.696168
H 2.885533 -0.342235 2.243292