20
H4 C6 O2 F8
F 1.169946 0.296171 0.108405
F 2.607763 0.327309 -1.533852
F 1.972022 -3.992987 0.875105
F 4.027943 -3.475575 1.394342
F 2.620715 -4.598894 3.507566
F 3.717260 2.780079 -0.338278
F 2.010239 2.003973 2.684077
F 2.472382 3.974624 1.806682
O 2.481900 -1.836249 1.293397
O 3.339392 0.718242 0.572716
C 2.733017 -1.493116 -0.070508
C 2.453990 -0.009044 -0.219505
C 2.720671 -3.131831 1.641015
C 2.387733 -3.289898 3.119312
C 3.162677 2.062367 0.650394
C 2.566045 2.660165 1.676482
H 2.061151 -2.035261 -0.741360
H 3.775367 -1.683066 -0.340100
H 3.028110 -2.622502 3.702193
H 1.332240 -3.051177 3.274818