21
H11 C6 O1 F3
F 1.094145 -0.230028 0.160185
F 2.708847 -0.412772 -1.307600
F 2.406141 3.924847 1.129998
O 2.830476 1.208136 0.255842
C 2.162447 2.223221 -0.515889
C 2.468075 -0.078721 0.022344
C 2.780607 3.569131 -0.185879
C 3.203253 -1.037425 0.934796
C 4.294658 3.620118 -0.286688
C 2.929677 -0.776458 2.419131
H 2.286615 2.016196 -1.585444
H 1.096953 2.230835 -0.267197
H 2.316196 4.315281 -0.844300
H 2.892663 -2.046570 0.644869
H 4.269898 -0.938752 0.706409
H 4.613835 3.375514 -1.306788
H 4.651848 4.624177 -0.038734
H 4.744291 2.900117 0.401914
H 1.863016 -0.877606 2.644551
H 3.478650 -1.497853 3.033797
H 3.245429 0.231820 2.703972