31
H6 C9 O2 F14
F 3.251195 -3.041745 1.246790
F 1.483657 -2.132272 0.346840
F 0.494491 3.928909 1.198678
F 0.556283 2.335346 -0.290552
F 3.243512 -3.275911 -1.422209
F 2.897168 -1.117597 -1.707271
F -1.957880 3.161540 0.442886
F -1.517789 1.036266 0.828833
F 5.469311 -2.061911 -2.200314
F 5.320188 -0.526251 -0.663687
F 5.662109 -2.606856 -0.096203
F -3.121739 2.354492 2.684662
F -1.284240 1.499927 3.481545
F -1.446595 3.657973 3.190901
O 3.148507 -0.796875 1.076140
O 0.973851 1.830958 1.867784
C 2.982791 0.894359 2.751687
C 2.587827 -0.530016 2.394901
C 2.425873 1.929756 1.787345
C 2.833668 -1.968196 0.502883
C 0.260737 2.589399 1.021637
C 3.483714 -2.045016 -0.910659
C -1.257492 2.306469 1.225695
C 5.023234 -1.801326 -0.960904
C -1.783089 2.459389 2.685960
H 2.625417 1.106038 3.766582
H 4.075762 0.983296 2.757924
H 1.501939 -0.643695 2.346310
H 3.005697 -1.249583 3.104824
H 2.724253 2.942436 2.073434
H 2.736758 1.727159 0.759359