21
H10 C6 O1 F4
F 4.547547 -0.504799 -1.097115
F 4.685601 -0.695794 1.102989
F 0.719791 -4.325733 -2.011698
F -1.028113 -2.990527 -2.252584
O 2.194404 -2.103386 -1.019477
C 2.708226 -1.394835 0.089897
C 0.783206 -2.173894 -1.037114
C 4.225746 -1.336634 -0.039729
C 0.360198 -3.009548 -2.239522
C 4.938807 -2.655716 -0.207257
C 0.889381 -2.572781 -3.583290
H 2.455167 -1.899052 1.034800
H 2.327455 -0.363333 0.123235
H 0.390466 -2.655951 -0.129665
H 0.336854 -1.172314 -1.130496
H 4.578945 -3.152700 -1.110954
H 6.013768 -2.472458 -0.286366
H 4.741865 -3.296982 0.656811
H 0.555455 -1.554069 -3.800869
H 1.981376 -2.596171 -3.570430
H 0.511705 -3.251266 -4.352966