21
H10 C6 O1 F4
F 4.224276 1.355385 0.123506
F 4.979462 -0.603387 -0.582885
F 1.729461 -1.179401 -2.989794
F 3.748641 -0.511488 -3.611684
O 2.392444 1.375306 -2.026841
C 2.937410 0.200864 -1.488006
C 1.006543 1.618118 -1.725977
C 0.579190 2.873485 -2.471822
C 4.334805 0.551081 -0.979068
C 3.000274 -0.917241 -2.534342
C 0.639645 2.715642 -3.995558
H 2.359422 -0.174763 -0.630235
H 0.405138 0.755237 -2.042421
H 0.896594 1.748000 -0.638541
H -0.444453 3.115801 -2.154330
H 1.218425 3.705679 -2.149219
H 4.952695 1.060073 -1.722210
H 3.427208 -1.849460 -2.154904
H -0.014491 1.901178 -4.332209
H 0.319151 3.635643 -4.497909
H 1.658141 2.482858 -4.322072