22
H11 C6 O2 F3
F 2.456260 -2.453556 -1.119340
F 2.436541 -1.939921 -3.233465
F 0.835474 -1.227460 -1.925245
O 5.025000 2.649448 0.326108
O 2.801775 -0.312575 -1.721768
C 4.775521 1.006913 -1.374844
C 4.414116 1.399798 0.053765
C 4.259001 -0.365410 -1.766348
C 4.724645 3.158114 1.621065
C 5.433711 4.491854 1.788925
C 2.154881 -1.451916 -1.993305
H 5.868139 0.999511 -1.476298
H 4.389099 1.760844 -2.070185
H 3.321272 1.470754 0.168475
H 4.775542 0.634486 0.764545
H 4.598418 -1.141093 -1.070453
H 4.565051 -0.632097 -2.782638
H 3.633409 3.279139 1.730126
H 5.057074 2.439732 2.390200
H 5.096691 5.203135 1.027116
H 5.222422 4.913651 2.778656
H 6.517087 4.365679 1.687288