26
H5 C7 O3 F11
F 0.976502 0.276493 -0.039500
F 2.707704 0.562672 1.260647
F 4.332605 0.864800 -0.997324
F 2.575994 0.623057 -2.274451
F 1.674282 -1.992252 1.627322
F 0.918390 -2.483160 -0.361985
F 3.382476 -3.653808 -1.001862
F 4.112700 -3.187350 1.000197
F 3.922393 3.202125 -2.438032
F 1.750481 3.196905 -2.667545
F 3.624093 -5.819227 2.131002
O 2.728468 -1.154068 -0.196563
O 2.637324 2.334324 -0.780369
O 2.309978 -4.531410 0.773514
C 2.319737 0.144059 0.034669
C 2.988753 1.038046 -1.055283
C 2.039529 -2.220672 0.347052
C 2.986215 -3.456138 0.290800
C 2.751386 3.344001 -1.750046
C 2.669858 4.685640 -1.071717
C 3.025281 -5.746021 0.891610
H 1.723804 4.761775 -0.531161
H 3.503025 4.791148 -0.373544
H 2.722838 5.464966 -1.835327
H 2.279324 -6.537565 0.821068
H 3.803151 -5.825088 0.128157