27
H14 C8 O1 F4
F 4.759552 -0.638352 0.946039
F 4.679086 -2.702093 0.153003
F -1.087216 -2.689959 -2.324204
F 0.566505 -1.726073 -3.433246
O 2.189163 -1.983817 -1.115424
C 4.264079 -1.405963 -0.100892
C 0.297793 -2.625902 -2.415944
C 2.745870 -1.348735 0.017962
C 0.776827 -2.023154 -1.100520
C 4.872228 -0.949573 -1.412492
C 0.860023 -3.988292 -2.773184
C 4.486954 0.480569 -1.805153
C 0.322142 -4.532654 -4.100523
H 2.455606 -1.854188 0.950656
H 2.434361 -0.295588 0.073946
H 0.405304 -2.643626 -0.271092
H 0.345712 -1.014881 -1.011300
H 5.958024 -1.047623 -1.299759
H 4.548853 -1.659581 -2.179892
H 1.950098 -3.889288 -2.797470
H 0.616477 -4.666997 -1.946488
H 4.743008 1.193473 -1.013803
H 5.022993 0.776761 -2.712879
H 3.414591 0.559556 -2.015347
H 0.579623 -3.867019 -4.930360
H 0.756247 -5.517197 -4.304791
H -0.767125 -4.638241 -4.072653