18
H6 C5 O1 F6
F 2.605272 3.402139 0.795859
F 0.794358 2.197134 0.997520
F 0.992711 1.057737 -4.022273
F 2.802272 2.261484 -4.225251
F 2.855928 0.125349 -4.678183
F 2.333308 2.250031 3.305257
O 2.561465 1.335724 -0.113006
C 2.703167 0.739568 -2.396963
C 2.130303 1.764377 -1.425647
C 2.166031 2.105424 0.935180
C 2.337687 1.047051 -3.832163
C 2.719198 1.488107 2.214128
H 3.794842 0.718301 -2.327824
H 2.324308 -0.259786 -2.162993
H 1.037450 1.782987 -1.461694
H 2.517982 2.767020 -1.626601
H 2.318373 0.476938 2.324965
H 3.811014 1.470584 2.158999