21
H8 C6 O1 F6
F 3.284753 -0.236962 -1.450046
F 1.521038 -0.420433 -0.181593
F 3.520584 -0.562151 0.690622
F 2.318828 0.417493 2.919315
F 3.862834 1.945231 2.682658
F 1.917370 2.467109 3.529696
O 2.226282 2.252896 -1.123639
C 2.802382 1.605676 -0.010788
C 1.990124 2.068435 1.209635
C 2.773860 0.081869 -0.235790
C 2.527522 1.708673 2.581805
C 3.147295 2.721544 -2.125169
C 2.331733 3.384240 -3.220205
H 3.859080 1.878054 0.114312
H 1.963015 3.160035 1.160952
H 0.961540 1.705804 1.137995
H 3.843812 3.438038 -1.661991
H 3.728592 1.880643 -2.522200
H 1.746428 4.217236 -2.816445
H 2.996957 3.770009 -4.001284
H 1.643057 2.663531 -3.673196