21
H9 C6 O1 F5
F 1.459515 -0.740312 -0.326273
F 3.582507 -0.563726 -0.930534
F -1.679250 2.952348 2.315605
F -2.020244 0.854223 2.812542
F -1.735954 2.320681 4.405591
O 2.092404 1.102129 1.910202
C 0.687014 1.312510 1.764421
C 0.177096 1.712184 3.146304
C 2.812324 0.918209 0.707321
C 2.738849 -0.512531 0.169258
C -1.313203 1.958904 3.168832
C 3.093228 -1.614283 1.136630
H 0.500024 2.113037 1.034246
H 0.187229 0.403623 1.410682
H 0.394187 0.920949 3.870402
H 0.673985 2.626895 3.483053
H 3.859541 1.138776 0.933567
H 2.469052 1.599218 -0.084861
H 2.427518 -1.571123 2.002088
H 2.987267 -2.580485 0.636154
H 4.125771 -1.491426 1.476109