18
H4 C5 O1 F8
F 1.055396 0.070010 0.259567
F 2.905486 0.562757 1.306835
F 1.160590 2.498067 -1.074758
F 3.006183 2.992838 -0.024697
F 2.984561 2.894675 -2.203983
F 2.581471 -3.967060 -0.539084
F 4.431867 -3.475826 0.504222
F 2.781015 -4.408654 1.593122
O 2.858167 -1.246325 -0.032024
C 2.889873 0.846009 -1.072388
C 2.424691 0.037406 0.129646
C 2.512215 -2.160215 1.011361
C 2.498174 2.314804 -1.075844
C 3.088640 -3.511498 0.625115
H 3.979467 0.787612 -1.119334
H 2.476532 0.384874 -1.972024
H 2.950695 -1.853737 1.964965
H 1.427287 -2.257926 1.105893