21
H11 C6 O1 F3
F 4.860803 1.926461 -1.982358
F 4.843903 0.038154 -0.887806
F 4.650347 1.928263 0.187612
O 0.985318 0.641391 -2.554951
C 2.764776 1.210162 -1.083789
C 2.384981 0.499293 -2.389522
C 4.276301 1.273993 -0.941095
C 2.118687 0.551086 0.142233
C 0.487576 0.008132 -3.729719
C -1.014431 0.229604 -3.791661
H 2.432565 2.252649 -1.160862
H 2.918614 0.945023 -3.242983
H 2.660796 -0.566791 -2.333664
H 2.356949 1.098648 1.058832
H 1.034116 0.539479 0.009933
H 2.464377 -0.482725 0.255269
H 0.983075 0.432286 -4.619398
H 0.723676 -1.069044 -3.699253
H -1.243057 1.300265 -3.825803
H -1.431935 -0.245371 -4.687181
H -1.502245 -0.199658 -2.909806