16
H6 C4 O2 F4
F 1.332115 -0.313201 0.667060
F 2.023440 -0.210580 -1.397129
F 1.791315 2.493411 1.321652
F 3.322952 -3.716722 1.818558
O 3.093493 1.018840 0.158565
O 2.874157 -2.570930 -0.111692
C 2.467811 -0.175166 -0.097342
C 3.451715 -1.307861 0.176645
C 2.315146 2.190222 0.077551
C 2.315013 -3.237335 0.966337
H 4.309916 -1.177247 -0.486048
H 3.789054 -1.234113 1.215430
H 2.996327 2.993014 -0.206321
H 1.484184 2.072303 -0.621841
H 1.674370 -2.594798 1.578993
H 1.782110 -4.099774 0.563440