24
H13 C7 O1 F3
F 0.890467 0.279911 0.386081
F 0.505536 -1.230639 -1.137527
F -0.924171 0.395192 -0.828814
O 2.493491 0.795457 -1.913967
C 4.514441 -0.241462 -2.758969
C 2.980359 -0.287460 -2.721044
C 5.073948 -0.399242 -1.332696
C 4.990825 -1.413262 -3.638197
C 4.986924 1.091823 -3.366691
C 1.105086 0.970918 -1.893390
C 0.400917 0.094483 -0.857705
H 2.642155 -1.246774 -2.307963
H 2.571365 -0.186612 -3.740179
H 4.749682 -1.347344 -0.884591
H 6.170812 -0.391426 -1.348745
H 4.732595 0.414709 -0.685402
H 4.606363 -1.329636 -4.663104
H 6.085935 -1.425658 -3.693303
H 4.666340 -2.379323 -3.230587
H 4.601565 1.219215 -4.387036
H 4.644227 1.939825 -2.765330
H 6.082319 1.124349 -3.414972
H 0.636640 0.769413 -2.868363
H 0.905507 2.009636 -1.612538