15
H7 C4 O1 F3
F 2.431410 2.313094 0.251589
F 2.406462 2.191140 2.423767
F 0.772174 1.313550 1.265271
O 2.702358 0.304688 1.231281
C 4.620771 -1.128719 1.085430
C 4.160188 0.307907 1.270018
C 4.245150 -1.717214 -0.278957
C 2.099962 1.496634 1.291643
H 5.711457 -1.136307 1.216148
H 4.199841 -1.739176 1.894456
H 4.527242 0.953413 0.463872
H 4.477035 0.715388 2.235652
H 4.681311 -1.127945 -1.095715
H 4.611215 -2.745634 -0.373298
H 3.158834 -1.728789 -0.414336