22
H10 C6 O2 F4
F 5.211103 1.326419 0.755214
F 5.094200 -0.426245 -0.586002
F 6.537485 1.591704 -1.659981
F 4.611156 1.348460 -2.724320
O 2.690532 2.170896 -0.257981
O 0.639307 2.179375 1.794812
C 4.655846 0.860015 -0.408362
C 3.138566 0.834350 -0.301982
C 1.298466 2.350386 -0.500028
C 5.189109 1.748020 -1.545530
C 0.381605 1.667288 0.505209
C -0.167224 1.591320 2.800973
H 2.746348 0.299581 -1.179318
H 2.881973 0.275896 0.608398
H 1.144515 3.431855 -0.459820
H 1.043390 1.991592 -1.511582
H 4.957037 2.800415 -1.373579
H -0.662489 1.864298 0.201242
H 0.520534 0.571827 0.488813
H -1.238203 1.775138 2.617066
H -0.000319 0.503727 2.864469
H 0.119263 2.053512 3.748668