22
H4 C6 O2 F10
F 1.054943 0.183867 0.295553
F 2.923010 0.622228 1.334788
F 2.224070 0.689778 -2.153562
F 2.309098 2.344492 -0.733506
F 2.346472 -3.744895 -0.830910
F 4.342419 -3.444374 -0.006708
F 2.793837 -4.397558 1.207812
F 6.603690 2.450421 -0.803061
F 6.726620 0.698550 -2.095051
F 6.751906 2.702289 -2.970338
O 2.859025 -1.098317 -0.119271
O 4.168010 1.127841 -1.100973
C 2.415481 0.145908 0.158041
C 2.822554 1.104030 -0.996259
C 2.586106 -2.096289 0.869917
C 4.701342 1.950036 -2.144259
C 3.028042 -3.429127 0.288250
C 6.213100 1.939331 -1.987548
H 3.156924 -1.904258 1.782336
H 1.516602 -2.150721 1.090337
H 4.446954 1.543836 -3.126866
H 4.349485 2.981102 -2.052103