24
H13 C7 O1 F3
F 1.351769 0.401683 0.376569
F 3.370002 0.954567 1.023829
F 2.583694 0.553637 -3.668109
O 3.040501 -1.065019 0.078634
C 2.972707 0.849018 -1.330731
C 2.695754 0.243400 0.042489
C 2.215530 0.061051 -2.402158
C 2.632318 2.343444 -1.372574
C 2.872513 -1.763854 1.341965
C 3.127326 -3.240438 1.081513
C 2.109418 -3.872474 0.125631
H 4.045968 0.706770 -1.505756
H 2.467697 -1.001888 -2.380749
H 1.132560 0.191429 -2.304257
H 3.214230 2.898531 -0.631479
H 2.859733 2.741193 -2.365328
H 1.568296 2.506862 -1.169422
H 3.585375 -1.351216 2.063261
H 1.853498 -1.593867 1.707054
H 4.144747 -3.358384 0.686477
H 3.103131 -3.752570 2.053093
H 2.138163 -3.384870 -0.854482
H 2.317044 -4.938614 -0.019747
H 1.088948 -3.777892 0.518488