21
H12 C6 O1 F2
F 0.894326 0.107195 -0.237657
F 2.684977 0.827021 -1.273395
O 2.763153 0.523659 0.958628
C 2.743334 -1.412738 -0.428654
C 2.284410 0.025556 -0.207405
C 2.299539 -2.311023 0.735190
C 2.248549 -1.945462 -1.780619
C 2.405994 1.889479 1.291031
C 3.041516 2.199296 2.633565
H 3.839403 -1.358111 -0.441900
H 1.205990 -2.360352 0.789866
H 2.677782 -3.327988 0.581921
H 2.677067 -1.941589 1.692945
H 2.578228 -1.312133 -2.609539
H 2.639740 -2.955955 -1.942817
H 1.154330 -1.997033 -1.800972
H 2.779438 2.553800 0.504566
H 1.314651 1.969132 1.333419
H 4.130770 2.098721 2.579238
H 2.801209 3.226890 2.930012
H 2.667977 1.518315 3.405779