24
H12 C7 O1 F4
F 1.289583 -2.901777 -3.589897
F 3.235177 -2.006562 -4.148960
F 3.274459 -4.733010 -4.045156
F 4.504952 -3.817373 -2.448251
O 1.949348 -2.383397 -0.803427
C 0.107327 -2.862470 0.654768
C 0.527204 -2.224504 -0.663458
C 0.787352 -2.271151 1.900761
C 2.533253 -1.742848 -1.914743
C 2.569123 -2.651025 -3.141935
C 3.222554 -4.019034 -2.885767
C 0.483321 -0.785827 2.134653
H -0.984180 -2.756302 0.738407
H 0.316527 -3.939191 0.599812
H 0.285101 -1.150968 -0.682173
H 0.007380 -2.701396 -1.504160
H 0.459876 -2.848894 2.775528
H 1.871069 -2.416607 1.817099
H 3.565785 -1.493640 -1.653118
H 2.004184 -0.821620 -2.197883
H 2.676018 -4.589873 -2.131982
H -0.598609 -0.603836 2.185528
H 0.924252 -0.439606 3.076809
H 0.891134 -0.156287 1.334648