21
H10 C6 O1 F4
F 1.582380 -2.792732 0.828298
F 2.714510 -2.346291 -0.986252
F 1.195765 -0.950208 -0.265680
F 4.181437 -3.012626 1.984405
O 2.654937 -0.582846 2.118565
C 3.244797 -1.053298 0.932899
C 2.931997 0.791578 2.467439
C 2.168769 -1.803954 0.137882
C 4.488723 -1.894267 1.211755
C 2.069592 1.745234 1.640846
C 2.664426 0.902856 3.962368
H 3.559732 -0.231278 0.271774
H 3.999367 0.991667 2.274650
H 4.946062 -2.241442 0.279208
H 5.203802 -1.284946 1.775508
H 1.008988 1.547351 1.830096
H 2.289035 2.785284 1.909709
H 2.247248 1.630872 0.565839
H 3.296913 0.204417 4.519270
H 2.866280 1.921649 4.311883
H 1.616639 0.662089 4.174176