21
H1 C6 O1 F13
F 0.931237 0.124578 -0.397178
F 2.786831 1.254344 -0.608865
F 1.931475 1.772317 1.929817
F 4.205209 -1.108895 -0.939362
F 2.326498 -2.248945 -0.750743
F 0.626807 0.393349 3.976982
F -0.292665 0.287817 1.980936
F 3.156184 -1.943269 -3.302336
F 1.294209 -0.872832 -2.923257
F 3.168989 0.229119 -3.118756
F -0.341190 -2.042395 3.568437
F 0.633143 -2.239477 1.630879
F 1.840638 -2.101056 3.449545
O 2.625127 -0.246403 1.063746
C 2.272899 0.060386 -0.224094
C 2.110073 0.441892 2.179369
C 2.864674 -1.066341 -1.129368
C 0.762768 -0.117203 2.718388
C 2.609136 -0.899491 -2.659749
C 0.717054 -1.667018 2.838594
H 2.864374 0.317002 2.958393