24
H7 C7 O1 F9
F 3.177593 -0.593319 -0.632863
F 1.083507 -0.086601 -0.165399
F 1.886421 2.394519 0.748970
F 3.983488 1.887164 0.280377
F 3.737671 -2.017599 3.438473
F 1.665907 -1.515614 3.908521
F 3.424775 -4.478752 4.677142
F 1.356694 -3.976642 5.150664
F 1.800903 -5.729151 3.929858
O 2.300161 -1.622930 1.750000
C 2.383684 0.159909 0.192869
C 2.613708 -0.228421 1.644211
C 2.679277 1.652292 -0.100641
C 2.446730 -2.175198 2.985606
C 2.068646 -3.646599 2.890793
C 2.463963 2.081075 -1.528480
C 2.169938 -4.444861 4.179865
H 3.659213 -0.045962 1.904143
H 1.956798 0.365550 2.284220
H 1.037539 -3.709047 2.536274
H 2.720743 -4.116822 2.151584
H 3.117546 1.508253 -2.190171
H 1.421910 1.916736 -1.811737
H 2.702899 3.144939 -1.606370