27
H10 C8 O1 F8
F 3.500863 2.220081 2.447205
F 1.461809 1.658260 3.085566
F 0.189256 -0.418459 -0.395379
F 0.499023 -2.575447 -0.063555
F 3.461933 1.319780 4.937564
F 2.315497 -0.480544 4.393619
F -1.752178 -2.642970 1.556313
F -2.061976 -0.486439 1.191289
O 2.079794 -0.974621 1.609867
C 2.682757 1.147452 2.718812
C -0.022935 -1.442590 0.504794
C 2.551393 0.345051 1.418588
C 0.685652 -1.135906 1.821922
C 3.275962 0.395017 3.938508
C -1.552466 -1.639150 0.631075
C 4.565227 -0.342499 3.671427
C -2.274679 -1.959626 -0.651869
H 1.921763 0.926694 0.735560
H 3.547998 0.250062 0.980914
H 0.557203 -1.989234 2.490770
H 0.225254 -0.256936 2.280902
H 4.389817 -1.146448 2.952552
H 5.318778 0.349449 3.285413
H 4.917158 -0.769641 4.614140
H -2.133620 -1.147739 -1.369013
H -1.887073 -2.890041 -1.072763
H -3.338936 -2.071774 -0.428502