24
H13 C7 O1 F3
F 1.111332 6.531809 1.330733
F 2.977836 6.132708 0.271708
F 2.961101 6.234640 2.453098
O 1.041024 2.401305 0.457142
C 0.115314 1.747966 -0.426044
C 0.577938 1.785388 -1.895060
C 1.184933 3.796411 0.262095
C 1.984272 4.317833 1.455066
C -0.056427 0.336508 0.125594
C 1.984252 1.221952 -2.130293
C 2.257766 5.800518 1.377083
H -0.852110 2.276695 -0.359170
H -0.159524 1.229018 -2.489768
H 0.533332 2.820533 -2.259120
H 0.199253 4.285844 0.215678
H 1.717639 4.017833 -0.673763
H 2.948133 3.802747 1.510952
H 1.441782 4.124513 2.385234
H -0.438734 0.376509 1.150664
H -0.762170 -0.232686 -0.490259
H 0.900812 -0.194320 0.141968
H 2.040274 0.154577 -1.889274
H 2.278039 1.341083 -3.179452
H 2.722283 1.740594 -1.508330