37
H10 C11 O2 F14
F 3.379655 -3.457683 -1.995540
F 3.930604 -2.081401 -0.361298
F 1.427661 3.716461 1.675785
F 0.768433 2.256206 0.158730
F 5.057496 -4.577522 -0.307347
F 3.871369 -4.015044 1.458072
F -1.062125 4.138457 0.938989
F -1.650025 2.039166 1.234516
F 3.730079 -6.661731 0.720859
F 1.819045 -5.617511 0.629839
F 2.884605 -6.101221 -1.211569
F -2.516381 3.802136 3.160536
F -1.183818 2.252740 3.918414
F -0.452087 4.293247 3.671113
O 1.454295 -2.638410 0.877814
O 0.415696 0.351937 2.214834
C 3.181779 -3.180710 -0.668757
C 0.656524 2.602428 1.474532
C -0.004967 -1.958161 2.638779
C 1.701140 -2.876562 -0.480591
C 1.214206 1.494194 2.358270
C 3.796869 -4.359476 0.150316
C -0.833189 3.023168 1.680534
C 0.089048 -2.325026 1.163558
C 0.862297 -0.758428 2.996738
C 3.039304 -5.717475 0.067502
C -1.254183 3.352443 3.143167
H -1.052286 -1.738734 2.879813
H 0.308968 -2.813019 3.250155
H 1.488463 -1.993619 -1.103242
H 1.116235 -3.724015 -0.867798
H 1.242989 1.854368 3.397326
H 2.248288 1.324155 2.020226
H -0.236406 -1.480619 0.539542
H -0.546018 -3.196030 0.938656
H 0.770521 -0.518387 4.067480
H 1.917194 -0.970454 2.771890