21
H10 C6 O1 F4
F 1.393311 0.154636 0.561966
F 3.494736 -0.242468 1.001810
F 0.815304 -2.341268 -0.867617
F 2.934761 -3.216100 -2.533215
O 2.636839 -0.986701 -0.941642
C 3.024990 1.349844 -0.706605
C 2.070120 1.774601 -1.830136
C 2.627087 0.053371 -0.040851
C 2.503564 3.099250 -2.467791
C 2.148262 -2.226778 -0.500129
C 2.950640 -3.338811 -1.148020
H 3.064647 2.108719 0.082969
H 4.042802 1.215139 -1.089918
H 2.035204 0.984858 -2.589343
H 1.055539 1.868772 -1.424337
H 2.194713 -2.306008 0.591314
H 3.508059 3.020715 -2.902915
H 1.815034 3.392014 -3.268458
H 2.521766 3.910483 -1.728749
H 3.990034 -3.282751 -0.807109
H 2.511618 -4.306166 -0.882935