21
H10 C6 O1 F4
F 2.458237 1.799119 -2.868294
F 1.196615 1.416138 -1.119914
F 4.602240 2.407751 -1.186461
F 2.779796 3.594807 -0.797174
O 3.027992 0.139152 -1.446815
C 2.934870 -2.245951 -1.720044
C 2.422683 -0.916526 -2.251741
C 2.580846 -2.529005 -0.250512
C 2.504056 1.369595 -1.567837
C 1.074093 -2.578307 0.034368
C 3.326734 2.350765 -0.710024
H 2.513519 -3.031881 -2.363438
H 4.024095 -2.277947 -1.851699
H 1.334441 -0.835694 -2.174344
H 2.718362 -0.759886 -3.293593
H 3.035595 -3.488483 0.029074
H 3.051272 -1.766997 0.383244
H 0.570115 -3.305354 -0.616363
H 0.883132 -2.873002 1.072777
H 0.597369 -1.602988 -0.119281
H 3.345760 2.035854 0.336884