18
H7 C5 O1 F5
F 3.054602 1.740016 -0.273126
F 1.376198 0.405181 -0.675176
F 3.402796 -0.205024 -1.204413
F -1.569961 -0.783217 3.579707
F -1.649598 -0.955391 1.396498
O 0.361583 -1.022159 2.428991
C 2.164995 0.539327 2.257574
C 2.862494 -0.198068 1.102796
C 0.649378 0.396306 2.295453
C 2.669617 0.434776 -0.257952
C -0.940606 -1.371744 2.501424
H 2.570875 0.149374 3.198123
H 2.409197 1.607664 2.222411
H 2.513368 -1.232547 1.034787
H 3.943390 -0.220724 1.275024
H 0.238392 0.924959 3.161344
H 0.174715 0.770099 1.385216
H -1.023917 -2.455455 2.591236