29
H12 C8 O3 F6
F 4.700833 6.125407 -3.515513
F 6.338103 5.909897 -2.092045
F 5.303835 7.827293 -2.281404
F 1.110403 0.880289 4.645379
F 0.822613 -0.204383 2.776470
F 0.721246 -1.271290 4.683132
O 4.861565 1.541371 0.150649
O 3.776973 4.738880 -1.202856
O 3.628194 0.429374 3.386071
C 4.003366 2.491849 -0.472528
C 4.751940 1.461425 1.567213
C 4.696508 3.849455 -0.562285
C 3.697898 0.427889 1.956619
C 4.118426 6.098814 -1.195804
C 2.868442 -0.594079 3.971403
C 5.121118 6.481472 -2.284336
C 1.372493 -0.284299 4.016181
H 3.048919 2.593211 0.063242
H 3.788145 2.119547 -1.478630
H 5.731528 1.159948 1.950741
H 4.498177 2.433591 2.013497
H 5.626288 3.754506 -1.134496
H 4.944919 4.224305 0.443122
H 2.727037 0.684417 1.515311
H 3.994449 -0.565179 1.587803
H 4.539579 6.422592 -0.232413
H 3.204256 6.665540 -1.393758
H 2.991256 -1.558072 3.456466
H 3.201604 -0.698587 5.007957