20
H9 C7 O1 F3
F 5.135756 -1.602716 -1.737506
F 5.202837 -3.635290 -2.533466
F 5.315539 -3.301088 -0.378378
O 1.214422 -2.317849 -0.358622
C 3.207018 -2.970804 -1.439879
C 2.622076 -2.126643 -0.310876
C 4.711961 -2.877180 -1.520915
C 0.494803 -1.562735 0.616479
C 0.780569 -1.955467 2.002948
C 1.029726 -2.280881 3.143031
C 1.324283 -2.677679 4.519029
H 2.799787 -2.649244 -2.403221
H 2.944809 -4.022948 -1.293490
H 3.023975 -2.445234 0.660541
H 2.868437 -1.062673 -0.453045
H 0.701020 -0.487531 0.482060
H -0.561444 -1.730727 0.382652
H 1.661107 -1.821572 5.116185
H 0.439069 -3.103438 5.006889
H 2.116728 -3.435759 4.544415