21
H12 C6 O1 F2
F 2.487506 2.813959 1.795987
F 1.220830 1.059235 1.451343
O 3.057815 1.352648 0.171731
C 2.890952 1.556955 -2.213575
C 2.565688 0.071658 -2.444053
C 2.406845 2.111826 -0.881556
C 1.065533 -0.250153 -2.436650
C 2.550535 1.476014 1.420559
C 3.356359 0.691441 2.424789
H 2.431201 2.166527 -3.005229
H 3.975735 1.711649 -2.283691
H 2.997219 -0.226500 -3.409057
H 3.073323 -0.526550 -1.677337
H 1.322560 2.016287 -0.772282
H 2.679387 3.166296 -0.767017
H 0.522937 0.367123 -3.165353
H 0.890469 -1.301185 -2.695110
H 0.618124 -0.078029 -1.450822
H 4.382908 1.065104 2.435678
H 2.909428 0.809341 3.414415
H 3.355135 -0.364106 2.142808