21
H4 C6 O1 F10
F 1.640682 0.332881 -2.882558
F 3.028701 1.787503 -2.026887
F 1.420902 0.949077 -0.804910
F 0.916116 -2.097826 1.200430
F 2.613237 -3.045731 2.198176
F 2.689259 -0.922771 1.670536
F 5.322653 -1.531180 -1.710975
F 3.949628 -1.300072 -3.430321
F 1.243882 -4.005913 -0.902550
F 3.320452 -4.233810 -1.627383
O 2.495864 -1.601512 -1.095017
C 3.273517 -0.443856 -1.303105
C 2.908456 -2.499292 -0.089304
C 2.312844 0.659029 -1.769491
C 2.252466 -2.139122 1.254227
C 4.409183 -0.686223 -2.309717
C 2.555138 -3.923702 -0.538062
H 3.727404 -0.073696 -0.376398
H 3.991866 -2.476976 0.071285
H 4.932729 0.231073 -2.593706
H 2.747460 -4.664361 0.244009