15
H4 C4 O1 F6
F 3.432941 0.236415 1.153705
F 1.352520 0.070513 0.441553
F 2.616048 -2.338280 0.702960
F 2.140518 -1.860383 -1.374383
F 4.198996 -1.702882 -0.660263
F 3.791411 3.364018 -2.287570
O 2.725192 2.236268 -0.602815
C 2.660051 -0.037044 0.065617
C 2.970291 0.922603 -1.076181
C 2.907613 -1.521459 -0.315728
C 2.586298 3.187947 -1.592358
H 4.016656 0.801092 -1.375601
H 2.318712 0.674400 -1.925021
H 1.839695 2.900308 -2.345876
H 2.341578 4.129515 -1.098648