24
H14 C7 O1 F2
F 1.502409 -4.022092 -3.472613
F 3.455341 -4.882961 -2.862326
O 2.660436 -0.795051 -2.773932
C 0.403827 0.255781 -2.680008
C 1.925672 0.431906 -2.756102
C -0.133409 -0.203660 -1.314443
C 2.717746 -1.427311 -4.044909
C 3.463061 -2.746133 -3.880801
C 0.321189 -1.602743 -0.877413
C 2.745574 -3.702293 -2.953732
H -0.048207 1.226776 -2.930122
H 0.075248 -0.442656 -3.462215
H 2.286039 0.971383 -1.872099
H 2.196454 1.027702 -3.643416
H 0.161682 0.531878 -0.551024
H -1.231369 -0.178270 -1.352705
H 3.250216 -0.784332 -4.764979
H 1.709724 -1.614958 -4.441324
H 4.461734 -2.560982 -3.469918
H 3.575916 -3.238401 -4.853815
H 1.402683 -1.633089 -0.712979
H -0.175165 -1.899376 0.054620
H 0.080246 -2.352465 -1.641605
H 2.587890 -3.324357 -1.942273