24
H11 C7 O1 F5
F 2.833092 1.605588 -2.942433
F 1.178673 1.661548 -1.508710
F 0.465340 -3.774641 -0.182090
F 0.887585 -3.007925 1.819435
F 0.170440 -1.659007 0.262278
O 2.819943 0.138623 -1.229023
C 2.654910 -2.237868 -1.399342
C 2.139891 -0.915739 -1.953483
C 2.426225 -2.448188 0.106378
C 2.541579 1.416639 -1.594670
C 3.297895 2.418209 -0.746712
C 0.989504 -2.717698 0.496476
C 4.818116 2.259828 -0.841569
H 2.192521 -3.054380 -1.966571
H 3.734265 -2.291525 -1.583360
H 1.061587 -0.802229 -1.818296
H 2.379768 -0.830915 -3.018195
H 3.000560 -3.313422 0.453043
H 2.760144 -1.575267 0.674823
H 2.982579 3.411789 -1.081572
H 2.950252 2.289037 0.283837
H 5.161433 2.384503 -1.873818
H 5.313760 3.015911 -0.223321
H 5.131988 1.271026 -0.492607