19
H8 C5 O2 F4
F 0.955012 0.035264 0.162267
F 2.602908 -1.014554 -0.819566
F 4.295089 -0.378329 1.341082
F 2.647996 0.671267 2.322522
O 2.825821 1.182262 -0.359256
O 2.424331 -1.524261 1.861083
C 2.325593 0.008965 0.055671
C 2.925125 -0.349208 1.444880
C 2.367041 1.670804 -1.651719
C 3.064799 2.995127 -1.892626
C 2.888327 -1.996905 3.144470
H 2.624951 0.929993 -2.415487
H 1.278820 1.784978 -1.614505
H 4.151548 2.863070 -1.905654
H 2.750777 3.405949 -2.859013
H 2.810434 3.714801 -1.107771
H 3.970805 -2.151530 3.124168
H 2.616428 -1.288213 3.931816
H 2.374842 -2.945850 3.297747