15
H4 C4 O1 F6
F 2.746250 1.779976 3.054769
F 2.738597 -0.378648 2.718709
F 0.968023 0.811827 2.249177
F 0.989517 3.861318 -1.456465
F 2.769385 4.827318 -0.651920
F 2.768913 4.080233 -2.704844
O 2.420506 2.215231 0.304679
C 2.863705 0.978715 0.811310
C 2.873569 2.470547 -1.003609
C 2.315383 0.812443 2.221489
C 2.336606 3.825488 -1.442606
H 3.960843 0.931420 0.868664
H 2.498776 0.135991 0.206423
H 3.971325 2.510743 -1.054243
H 2.508302 1.716528 -1.715842