21
H12 C6 O1 F2
F 1.381438 4.329515 -1.292148
F 3.428618 4.535695 -0.464102
O 2.103506 1.532278 -1.965548
C 0.260648 0.318680 -2.900968
C 0.892842 -1.063475 -2.667828
C 0.676874 1.387611 -1.897652
C 0.518515 -1.705468 -1.325703
C 2.686872 2.352772 -0.979564
C 2.663781 3.825228 -1.364056
H -0.835813 0.239153 -2.862832
H 0.517572 0.672980 -3.908079
H 0.578443 -1.726785 -3.485028
H 1.983228 -0.971565 -2.740635
H 0.392693 1.104298 -0.872153
H 0.185335 2.341431 -2.128090
H -0.571265 -1.776791 -1.208661
H 0.929278 -2.719123 -1.247654
H 0.908447 -1.130379 -0.477293
H 3.735673 2.050995 -0.887167
H 2.199045 2.239883 0.000942
H 3.039852 4.021975 -2.372390