24
H13 C7 O1 F3
F 0.994145 0.096209 -0.039599
F 2.732986 -0.974641 -0.911714
F 6.458880 1.518491 -0.708814
O 4.045617 2.279081 1.654939
C 2.362334 2.672276 -0.126735
C 2.719781 2.717681 1.368114
C 2.826474 1.390175 -0.837523
C 5.072945 3.177541 1.250482
C 6.416233 2.494513 1.481300
C 2.375416 0.121459 -0.152592
C 6.571449 1.219437 0.669741
H 2.795782 3.531290 -0.652723
H 1.273273 2.774297 -0.210476
H 2.560466 3.733369 1.765197
H 2.071732 2.039596 1.932713
H 3.919651 1.356641 -0.894398
H 2.441253 1.366441 -1.863524
H 4.971620 3.437302 0.187617
H 5.008420 4.108931 1.836244
H 7.222325 3.193614 1.225435
H 6.520046 2.238856 2.544318
H 2.785020 -0.029351 0.849747
H 7.554107 0.759317 0.816485
H 5.783465 0.497408 0.901679