22
H10 C6 O2 F4
F 1.000779 -0.078289 -0.103382
F 2.759115 -1.369629 -0.219964
F 2.303117 1.675171 1.571421
F 2.198064 -0.385777 2.288564
O 2.901652 0.746593 -0.994096
O 4.149135 0.380227 1.455712
C 2.374921 -0.058688 -0.059226
C 2.811787 0.415644 1.354962
C 2.573566 0.442652 -2.379523
C 4.719952 0.783517 2.732789
C 3.288477 1.470319 -3.234891
C 6.225858 0.675251 2.593524
H 2.909001 -0.575630 -2.601550
H 1.486860 0.497625 -2.500614
H 4.404010 1.809667 2.947056
H 4.334675 0.118481 3.512476
H 4.371510 1.412177 -3.085145
H 3.071344 1.284169 -4.292950
H 2.955256 2.482387 -2.983012
H 6.588881 1.332755 1.796864
H 6.704872 0.968839 3.534607
H 6.519579 -0.352931 2.358296