14
H3 C4 O1 F6
F 2.249104 -1.403564 -3.275362
F 3.230646 0.509133 -2.875738
F 1.147690 0.197707 -2.287024
F 2.559400 -0.629682 2.072161
F 2.938928 -2.667981 2.792973
F 4.293626 -1.722786 1.349932
O 1.916360 -1.828929 -0.543614
C 2.862272 -0.881236 -1.033208
C 2.353238 -0.398671 -2.382119
C 2.159930 -2.477306 0.614686
C 2.981351 -1.880390 1.700175
H 3.844497 -1.342178 -1.173519
H 2.945860 -0.018188 -0.365627
H 1.403699 -3.206759 0.872526