18
H7 C5 O1 F5
F 5.017233 -1.645018 1.672350
F 4.595788 0.246106 0.667155
F 4.556119 -1.622823 -0.462453
F 0.988648 -0.907024 4.760706
F 0.568242 0.991234 3.755048
O 0.955473 -0.847243 2.505179
C 2.761454 -1.228548 1.031703
C 2.371896 -0.605948 2.367453
C 4.233061 -1.061952 0.728197
C 0.366428 -0.376685 3.639611
C -1.106947 -0.692215 3.659976
H 2.198175 -0.763493 0.217135
H 2.540362 -2.300084 1.033083
H 2.907393 -1.075767 3.197482
H 2.564059 0.470820 2.376471
H -1.588899 -0.226669 2.797196
H -1.246015 -1.774912 3.617242
H -1.542229 -0.300340 4.581854