24
H12 C7 O1 F4
F 2.315292 -2.899100 0.789105
F 0.688039 -1.523883 0.283023
F 3.762874 -1.998779 -1.421687
F 1.736512 -2.734888 -1.905283
O 2.718877 -0.677024 0.782579
C 2.325544 2.022161 1.920665
C 3.061794 0.856463 2.600800
C 0.824866 2.103058 2.234224
C 2.550254 -0.525390 2.223893
C 0.166923 3.349020 1.629119
C 2.058474 -1.689612 0.198422
C 2.431815 -1.734916 -1.296161
H 2.972712 0.944002 3.693209
H 4.132593 0.907808 2.365339
H 2.807457 2.959027 2.233866
H 2.466653 1.951455 0.834080
H 0.314054 1.208877 1.852536
H 0.679578 2.102812 3.325010
H 1.491533 -0.651330 2.468212
H 3.125823 -1.315143 2.716324
H 0.279267 3.361105 0.537307
H -0.905326 3.385898 1.854975
H 0.624381 4.267096 2.019853
H 2.204049 -0.784476 -1.786411