18
H10 C5 O1 F2
F 0.837687 -0.020745 -0.008672
F 2.411060 -1.580602 -0.149032
O 4.267237 2.457585 -0.670395
C 2.269989 1.778551 -1.811383
C 2.595012 0.293301 -1.584372
C 2.874310 2.718178 -0.771192
C 2.192154 -0.219470 -0.221788
C 4.928677 3.303474 0.253730
H 2.641451 2.061282 -2.803508
H 1.183401 1.926929 -1.816093
H 3.671725 0.125152 -1.688321
H 2.082134 -0.323440 -2.331671
H 2.702447 3.766473 -1.068095
H 2.394847 2.577488 0.213470
H 2.721593 0.238150 0.618574
H 4.846342 4.361994 -0.041027
H 4.517794 3.187509 1.269983
H 5.982328 3.012881 0.257653