24
H7 C7 O1 F9
F 2.499635 3.407165 0.788612
F 0.879057 1.972202 1.103247
F 4.323915 1.566593 1.919783
F 3.357329 1.492656 4.438070
F 2.948304 3.421017 3.511137
F 1.334769 1.972629 3.776926
F 0.567415 -0.638927 -3.767319
F 1.043097 -2.405415 -2.573151
F 0.253752 -0.615766 -1.607731
O 2.624872 1.386893 -0.198086
C 2.695736 0.960921 -2.551671
C 2.053031 1.813937 -1.466914
C 2.238501 2.064604 0.900677
C 2.514118 -0.556844 -2.391803
C 2.962451 1.460979 2.119649
C 2.640994 2.114988 3.475703
C 1.096214 -1.049934 -2.583609
H 2.295114 1.286266 -3.518997
H 3.771802 1.168280 -2.563278
H 0.969100 1.685141 -1.421893
H 2.288634 2.870784 -1.622536
H 2.690283 0.403713 2.185665
H 3.123328 -1.080352 -3.135525
H 2.841607 -0.886420 -1.401575