15
H2 C4 O1 F8
F 1.115190 -0.486088 0.600468
F 2.136763 0.174718 -1.213239
F 2.708099 -2.410338 -0.517552
F 4.462280 -1.119502 -0.375523
F 3.441285 -1.779848 1.439110
F 3.182472 2.630096 2.917473
F 4.218287 3.293384 1.117141
F 2.340129 4.245365 1.707611
O 2.914664 0.857462 0.788574
C 2.341983 -0.149950 0.099004
C 2.185217 2.090323 0.824551
C 3.266896 -1.398780 0.164982
C 3.004396 3.065157 1.654975
H 2.065017 2.501366 -0.181250
H 1.212064 1.953794 1.303485