21
H8 C6 O1 F6
F 1.072322 -0.291269 -0.580530
F 3.027254 -0.512880 -1.524426
F 1.986765 -1.050558 1.812517
F 2.611975 -2.470453 0.244106
F 4.489349 -2.066972 2.169863
F 5.134805 -1.245561 0.221896
O 2.781193 1.036773 0.105529
C 2.419117 -0.177088 -0.340438
C 2.271205 2.281936 -0.508668
C 2.812328 -1.225547 0.738794
C 4.260179 -1.083918 1.254380
C 2.270758 2.243317 -2.032649
C 0.920641 2.639321 0.103085
H 3.025828 2.995321 -0.165570
H 4.423406 -0.110100 1.720544
H 1.526114 1.541646 -2.419462
H 2.020064 3.244295 -2.402084
H 3.252745 1.964242 -2.423891
H 0.969365 2.590452 1.195460
H 0.653597 3.662590 -0.186169
H 0.134018 1.963812 -0.243446