15
H5 C4 O1 F5
F 0.919776 -0.138048 0.554944
F 2.029617 -0.409815 -1.309434
F 2.451242 -2.400016 0.513991
F 4.263814 -1.243192 0.143730
F 3.155340 -0.971786 2.005680
O 2.777839 1.095190 0.198922
C 2.182705 -0.089252 0.017312
C 3.035907 -1.203009 0.687572
C 2.109918 2.263571 -0.368392
C 2.970496 3.465183 -0.033473
H 2.016172 2.115699 -1.448783
H 1.112018 2.338565 0.074859
H 3.970072 3.359077 -0.467035
H 2.507723 4.371348 -0.440488
H 3.069671 3.580926 1.050573