18
H5 C5 O1 F7
F 1.306713 0.203495 0.296158
F 2.912580 0.297165 -1.178874
F 3.378018 0.392949 0.950340
F 2.147280 -3.804496 -0.811908
F 0.658013 -2.221258 -0.988470
F 2.451608 -2.175652 -2.231395
F 2.959852 -2.134328 4.196167
O 2.312371 -2.128527 1.361567
C 2.743493 -1.710743 0.100568
C 2.566301 -0.181091 0.037517
C 1.977044 -2.470616 -1.003105
C 3.127692 -3.105628 2.020126
C 2.622610 -3.259248 3.435170
H 3.810704 -1.903456 -0.072043
H 3.058479 -4.070985 1.500733
H 4.175451 -2.774234 2.035084
H 1.532603 -3.360981 3.451849
H 3.089079 -4.132597 3.905568