21
H9 C6 O1 F5
F 3.294610 -0.737028 0.878921
F 1.639498 0.552940 0.281403
F 3.692100 1.275460 0.127969
F -1.540601 -1.562077 -3.383075
F -1.525642 0.067668 -1.920716
O 0.427659 -0.608829 -2.827667
C 2.257790 -1.663625 -1.711155
C 3.016001 -0.350348 -1.457901
C 0.740570 -1.536328 -1.758439
C 2.905289 0.182157 -0.046130
C -0.888325 -0.374226 -3.070930
C -1.070628 0.625663 -4.184375
H 2.600095 -2.066491 -2.671455
H 2.518663 -2.401492 -0.943186
H 2.664385 0.436334 -2.131769
H 4.085233 -0.496214 -1.642603
H 0.284542 -2.506278 -1.981293
H 0.328510 -1.152285 -0.822264
H -0.601608 1.571012 -3.901498
H -0.604197 0.243095 -5.095212
H -2.138386 0.780830 -4.353907