18
H7 C5 O1 F5
F 3.019521 0.045355 -1.250930
F 3.376829 -0.851328 0.739232
F 0.712023 2.787692 3.776502
F 2.450227 1.837876 4.687783
F 2.372766 4.014115 4.496616
O 2.403076 1.583672 1.902503
C 2.592247 0.067829 0.070369
C 2.923880 1.462152 0.591240
C 2.739780 2.798499 2.523454
C 1.146432 -0.355730 0.148600
C 2.057473 2.844673 3.881709
H 4.016883 1.580692 0.578164
H 2.473288 2.206741 -0.081876
H 3.823411 2.890245 2.687667
H 2.389519 3.668160 1.947573
H 0.523689 0.336094 -0.426105
H 1.048855 -1.362570 -0.266189
H 0.820973 -0.351237 1.191320