15
H8 C4 O1 F2
F 1.011364 0.092868 0.198171
F 2.834928 0.878167 1.120097
O 2.823081 -1.245043 0.353195
C 2.875096 0.504989 -1.240336
C 2.398377 0.021547 0.114346
C 2.423770 1.931635 -1.564036
C 2.435815 -1.825708 1.614227
H 3.967482 0.426595 -1.237072
H 2.496600 -0.207504 -1.980987
H 2.808880 2.643665 -0.827147
H 2.795934 2.226034 -2.551112
H 1.331736 2.006844 -1.574011
H 2.841325 -1.242377 2.446136
H 1.346180 -1.886289 1.690489
H 2.867643 -2.827105 1.613120