18
H10 C5 O1 F2
F 1.385120 2.056887 4.110159
F 3.340806 1.108355 4.541850
O 2.250879 2.198734 1.275428
C 0.533908 3.041175 -0.178640
C 0.841228 2.142973 1.012761
C 2.726285 1.320125 2.270439
C 0.809939 4.527026 0.079357
C 2.683390 1.939443 3.660617
H 0.561188 1.100849 0.791736
H 0.276935 2.466740 1.898073
H 1.117838 2.693302 -1.040988
H -0.525279 2.896579 -0.433781
H 3.774857 1.105069 2.037149
H 2.168643 0.371656 2.287198
H 1.867599 4.697037 0.305546
H 0.549519 5.130883 -0.797828
H 0.219173 4.897239 0.927368
H 3.140722 2.930838 3.716446