16
H1 C4 O2 F9
F 0.656781 -0.081090 -0.167312
F 2.175706 0.730389 1.168393
F 1.873162 2.135909 -1.158880
F 1.355101 -2.138269 1.513407
F 3.029462 -3.178224 0.579425
F 3.395636 -1.596680 2.025365
F 4.145306 2.699689 0.221141
F 4.898046 0.706338 0.653478
F 5.842139 1.906057 -0.894100
O 2.649839 -1.129986 -0.045997
O 3.887176 1.066107 -1.327628
C 1.994862 0.089584 -0.005955
C 2.500898 0.919964 -1.215040
C 2.597883 -1.998497 1.027906
C 4.671214 1.596181 -0.331490
H 2.203420 0.405627 -2.130362