22
H9 C6 O2 F5
F 1.934849 -1.668589 3.888962
F 0.102436 -1.610529 2.697883
F 1.323151 -4.068606 2.743413
F 1.316572 -3.187793 0.747066
F 3.160223 -3.228927 1.916351
O 1.994082 -0.731569 1.836278
O 3.986553 1.471992 1.788561
C 1.735577 0.645701 2.237649
C 2.628339 1.544253 1.399263
C 1.468821 -1.697592 2.599978
C 4.809062 0.557114 1.046525
C 1.825771 -3.080729 1.986189
C 5.303878 1.163626 -0.263836
H 0.677128 0.865576 2.058338
H 1.971751 0.759241 3.299239
H 2.492354 1.308845 0.333848
H 2.300878 2.579321 1.558883
H 5.652834 0.339787 1.709170
H 4.269458 -0.382031 0.872777
H 5.853322 2.091637 -0.071522
H 5.972302 0.460798 -0.776920
H 4.473612 1.390855 -0.943145