27
H4 C8 O1 F14
F 4.716179 -0.784185 -1.084408
F 4.794217 0.942831 -2.454839
F -0.894608 3.340500 -1.749913
F 0.858696 4.062841 -0.622539
F 6.276735 1.127066 -0.156325
F 4.758528 2.692161 -0.456206
F 0.388766 5.239398 -3.053142
F 2.345804 4.260775 -2.814947
F 5.134126 1.893641 2.149214
F 3.127344 1.504892 1.390297
F 4.537807 -0.141675 1.633976
F 1.229310 4.073213 -5.321386
F 1.506925 2.147932 -4.336218
F -0.490598 3.010007 -4.499863
O 2.281573 1.774274 -1.468300
C 4.287229 0.502810 -1.269998
C 0.472968 3.310055 -1.689788
C 2.764992 0.459252 -1.337218
C 0.876778 1.855755 -1.476317
C 4.943698 1.385845 -0.160890
C 1.019514 4.040627 -2.957992
C 4.425474 1.153344 1.289254
C 0.808770 3.301633 -4.312631
H 2.509811 -0.159764 -2.210075
H 2.383373 -0.029560 -0.430414
H 0.434905 1.243688 -2.274433
H 0.443448 1.551112 -0.512157