23
H5 C6 O3 F9
F 0.487242 0.495931 0.480693
F 1.949191 0.049274 -1.080002
F 1.487178 -1.293804 2.143464
F 0.203962 -3.524533 1.047412
F -0.244882 -1.906798 -0.356886
F 3.793428 3.102138 2.217591
F 4.750886 2.816626 0.264265
F 1.132375 -3.296638 -2.370824
F 2.367473 5.093492 1.130134
O 2.632802 1.060135 0.811561
O 1.919083 -2.356650 0.151230
O 3.556900 4.573653 0.505974
C 1.785058 0.136075 0.276062
C 2.146261 -1.226065 0.942221
C 2.407591 2.416014 0.412824
C 0.663689 -2.878135 -0.071357
C 3.615877 3.210085 0.884244
C 0.733172 -3.907096 -1.193027
H 3.221936 -1.229425 1.125933
H 2.344485 2.502448 -0.675373
H 1.503958 2.811353 0.880509
H 1.457551 -4.680852 -0.925434
H -0.263756 -4.334549 -1.330355