18
H10 C5 O1 F2
F 3.817553 2.187521 -1.388644
F 1.723159 2.796261 -1.182639
O 2.272549 0.631689 -0.845356
C 2.021390 0.200296 -2.224273
C 3.029858 -0.892883 -2.552451
C 0.572142 -0.261921 -2.295088
C 2.663169 1.910128 -0.656169
C 2.894231 2.212420 0.802890
H 2.172669 1.060314 -2.883337
H 2.916699 -1.734944 -1.859789
H 2.871839 -1.259783 -3.573578
H 4.051690 -0.509469 -2.472273
H -0.105774 0.558480 -2.039764
H 0.335010 -0.611196 -3.306980
H 0.401461 -1.087336 -1.594229
H 3.673936 1.551993 1.189484
H 3.206369 3.253805 0.908480
H 1.967550 2.046527 1.357234