23
H8 C6 O3 F6
F 5.584624 -4.214800 -2.392754
F 6.971352 -4.358195 -0.722757
F 7.579592 -3.337018 -2.559194
F -0.255018 2.131127 -0.360347
F 1.597810 2.525621 0.709133
F 1.195235 3.549065 -1.179904
O 3.945697 -0.414761 -1.308443
O 6.132863 -2.342593 -1.270918
O 1.687893 1.429298 -1.254040
C 4.555825 -0.941115 -0.141566
C 2.589455 -0.771674 -1.518345
C 5.048052 -2.369581 -0.313645
C 1.613837 0.084157 -0.725790
C 6.554481 -3.531069 -1.722881
C 1.072854 2.381361 -0.540053
H 3.876052 -0.914320 0.724859
H 5.405201 -0.287358 0.077169
H 2.403687 -0.639360 -2.588240
H 2.399779 -1.827967 -1.269851
H 4.255750 -3.028115 -0.684440
H 5.423273 -2.758873 0.639951
H 0.591707 -0.292006 -0.849999
H 1.864232 0.100427 0.340001