15
H6 C4 O1 F4
F 4.571254 1.314754 0.041562
F 4.791423 -0.600822 -1.051087
F 0.766391 3.547412 -3.265173
F -0.940892 3.391204 -1.860682
O 2.231731 1.822277 -1.519945
C 2.745975 0.532575 -1.256216
C 0.821082 1.862876 -1.595755
C 4.251217 0.663652 -1.122611
C 0.427781 3.281095 -1.962834
H 2.523983 -0.161629 -2.080903
H 2.345618 0.115800 -0.319400
H 0.432677 1.180345 -2.367049
H 0.362200 1.608530 -0.628266
H 4.721898 1.200051 -1.951422
H 0.889516 4.044080 -1.329710