21
H12 C6 O1 F2
F 4.647459 -1.180307 -0.101418
F 4.634942 -0.955248 -2.302096
O 2.232538 0.585756 -2.036434
C 0.844790 0.492245 -2.413706
C 2.700503 -0.344528 -1.082528
C 4.223915 -0.344357 -1.129835
C 0.568703 -0.753693 -3.259944
C -0.091532 0.611060 -1.208775
C 4.904418 0.996294 -1.003859
H 0.716601 1.377504 -3.046714
H 2.369138 -1.370277 -1.288752
H 2.390650 -0.072840 -0.063154
H 0.620062 -1.674472 -2.667139
H -0.438206 -0.696194 -3.690215
H 1.294168 -0.825871 -4.076680
H 0.162905 1.490679 -0.606951
H -1.128130 0.714499 -1.549750
H -0.041998 -0.277351 -0.567514
H 4.636071 1.460233 -0.050078
H 5.987691 0.853537 -1.046780
H 4.580753 1.643820 -1.821676