15
H7 C4 O1 F3
F 5.094838 -0.546370 2.011114
F 4.406886 0.534709 0.244141
F 4.736592 -1.621822 0.144488
O 0.930256 -0.137897 2.534776
C 2.831371 -0.876515 1.342348
C 2.266235 0.225497 2.235315
C 4.264345 -0.627275 0.936833
C 0.273070 0.805034 3.366304
H 2.234716 -0.961244 0.429119
H 2.793316 -1.837486 1.864127
H 2.859313 0.316137 3.159343
H 2.296292 1.196751 1.716143
H 0.784856 0.909230 4.336240
H 0.218528 1.794391 2.884895
H -0.739543 0.429707 3.532526