18
H6 C5 O1 F6
F 2.928385 -1.151929 0.681140
F 3.221002 1.024066 0.402914
F 3.826939 0.532590 -3.974506
F 1.869912 -0.434589 -4.112892
F 2.093645 1.861423 -5.610178
F 0.631849 2.069396 -3.965254
O 2.367833 0.768336 -2.271253
C 2.848455 -0.339289 -1.486291
C 2.478507 -0.054525 -0.036060
C 2.508035 0.666519 -3.610632
C 1.018182 0.186730 0.257516
C 1.957002 1.951568 -4.260091
H 3.935265 -0.422060 -1.570428
H 2.369838 -1.267793 -1.808971
H 0.429559 -0.686950 -0.036948
H 0.897374 0.360890 1.329939
H 0.669138 1.059861 -0.298637
H 2.489659 2.834665 -3.896958