15
H7 C4 O1 F3
F 2.856358 1.194877 -0.291230
F 3.121112 -0.933623 -0.837267
F 0.197296 0.601823 0.463472
O 2.298682 -1.646105 1.779351
C 2.427948 -0.083296 -0.001621
C 2.783678 -0.364336 1.449009
C 0.957483 -0.226213 -0.364515
C 2.560838 -2.008141 3.127119
H 3.878340 -0.301013 1.548212
H 2.321559 0.416470 2.071062
H 0.808444 0.083119 -1.402857
H 0.643907 -1.260493 -0.207630
H 3.642848 -2.033950 3.328679
H 2.080980 -1.307731 3.828013
H 2.143227 -3.007071 3.271327