18
H8 C5 O1 F4
F 1.451966 -0.712087 0.378772
F 3.600470 -1.137280 0.333199
F 1.965104 1.826854 1.380851
F 2.874019 0.197474 2.563083
O 2.799608 0.555413 -0.938253
C 2.312935 0.004403 -2.217401
C 2.676525 -0.113900 0.217191
C 2.664060 -1.467036 -2.412405
C 0.827449 0.311921 -2.380301
C 2.934909 0.867806 1.378853
H 2.886406 0.608227 -2.926519
H 2.108486 -2.110031 -1.723645
H 2.397777 -1.753425 -3.436415
H 3.733840 -1.642277 -2.269492
H 0.630734 1.367820 -2.169632
H 0.526049 0.102141 -3.413497
H 0.217458 -0.298868 -1.709361
H 3.913943 1.344304 1.281451