18
H7 C5 O1 F5
F 4.839840 0.586818 0.579103
F 4.472517 -1.560899 0.428432
F 4.956381 -0.667654 2.361670
F 1.880541 1.999289 5.152034
F -0.047426 3.095308 5.216949
O 1.102475 1.056690 2.468513
C 2.790959 -0.248901 1.460820
C 2.523082 0.974087 2.333211
C 0.618698 2.204385 3.137818
C 4.263899 -0.472067 1.208924
C 0.596672 2.020322 4.648263
H 2.298195 -0.135992 0.490510
H 2.394766 -1.148329 1.941787
H 3.006602 0.869943 3.311002
H 2.906710 1.885384 1.851933
H 1.206623 3.103370 2.900542
H -0.411867 2.357950 2.802718
H 0.098773 1.102057 4.973449