20
H9 C7 O1 F3
F 8.495144 4.431460 2.096876
F 8.725997 4.498281 -0.073121
F 8.602489 2.576193 0.951081
O 3.400025 4.481382 1.618537
C 1.427769 5.228610 2.754274
C 1.975163 4.525016 1.519547
C 1.882568 6.688023 2.866553
C 4.007104 3.869074 0.496849
C 5.459550 3.866062 0.669291
C 6.660234 3.853019 0.789476
C 8.109593 3.840217 0.940768
H 0.331195 5.173717 2.711423
H 1.741114 4.664730 3.642365
H 1.684793 5.068879 0.603484
H 1.577838 3.498809 1.445167
H 1.555594 7.269936 1.994735
H 1.463818 7.161402 3.762056
H 2.973845 6.750945 2.924077
H 3.754973 4.409440 -0.432198
H 3.655433 2.829617 0.375291