24
H10 C7 O1 F6
F 0.960596 0.447672 -0.484522
F 2.165357 -1.315845 -0.022645
F 3.083843 0.431852 -0.953967
F -0.452844 -0.040950 1.764264
F -0.074923 -0.437807 3.874312
F 0.193876 1.574586 3.081095
O 2.349184 1.983561 1.266087
C 2.532895 0.596951 1.344646
C 1.819370 -0.092013 2.529501
C 2.161028 0.044720 -0.042145
C 3.074219 2.760520 2.226709
C 0.366857 0.262977 2.791908
C 2.836748 4.232414 1.918411
C 1.368532 4.647844 2.066038
H 3.602175 0.347781 1.449556
H 1.872677 -1.177074 2.406694
H 2.358110 0.154758 3.448850
H 2.723263 2.524011 3.242449
H 4.145507 2.510767 2.159457
H 3.469249 4.819980 2.598149
H 3.188676 4.433781 0.898502
H 1.009957 4.470742 3.087793
H 1.241031 5.713128 1.842208
H 0.731888 4.074362 1.385531