24
H8 C7 O1 F8
F 5.011111 0.025080 -1.817549
F 3.678019 1.471638 -2.757957
F 0.721508 0.308161 -2.992950
F 0.492493 -1.863808 -3.029312
F 0.237909 -0.760313 -1.160131
F 3.428858 0.838607 1.473293
F 5.490151 0.412460 0.908741
F 4.950151 2.388047 1.665091
O 2.849974 0.084051 -1.181114
C 2.463533 -1.009073 -2.043242
C 2.853528 -2.349851 -1.414723
C 3.916638 0.826612 -1.558939
C 4.251857 1.882543 -0.516865
C 0.963660 -0.824079 -2.295536
C 2.330901 -2.588789 0.007443
C 4.526669 1.360362 0.884511
H 2.941071 -0.897210 -3.021013
H 2.518091 -3.145317 -2.091004
H 3.948895 -2.372780 -1.415202
H 5.139544 2.419051 -0.858473
H 3.416339 2.583307 -0.456505
H 1.242311 -2.692534 0.030924
H 2.767508 -3.509791 0.408439
H 2.608621 -1.763613 0.670454