21
H9 C6 O1 F5
F 0.973859 -0.114481 -0.113189
F 2.730735 -1.236918 -0.771766
F 2.457869 3.520881 -1.889976
F 4.295317 2.542602 -2.537832
F 2.581441 2.648174 -3.891006
O 2.821571 1.009509 -0.744400
C 2.881221 -0.127326 1.348674
C 2.359692 -0.092916 -0.082142
C 2.469935 1.142701 2.108603
C 2.413648 -1.401823 2.065810
C 2.412069 1.147693 -2.102296
C 2.948195 2.479655 -2.595624
H 3.973733 -0.148919 1.247821
H 1.379496 1.204096 2.198319
H 2.892513 1.117757 3.118893
H 2.827459 2.046314 1.606842
H 2.720207 -2.304658 1.529290
H 2.848408 -1.435218 3.070500
H 1.322868 -1.413605 2.167119
H 2.830587 0.352118 -2.725558
H 1.322017 1.160855 -2.190259