21
H11 C6 O1 F3
F 3.219993 1.245415 0.328897
F 1.481214 0.084144 -0.294304
F 3.464899 -0.451565 -1.024296
O 0.454139 -1.826027 2.396270
C 2.400407 -0.458286 2.575438
C 3.001018 -0.947419 1.247529
C 0.875400 -0.488966 2.631753
C 2.787557 -0.020015 0.072420
C -0.959770 -2.001602 2.312016
C -1.537372 -1.582103 0.960626
H 2.786307 -1.108967 3.368994
H 2.746395 0.559130 2.794000
H 2.580328 -1.919528 0.975208
H 4.085464 -1.063041 1.346400
H 0.536537 -0.158675 3.628207
H 0.447086 0.195883 1.888229
H -1.124934 -3.071580 2.477676
H -1.452413 -1.456583 3.134559
H -1.041318 -2.127572 0.150533
H -2.610925 -1.806145 0.925733
H -1.412141 -0.510081 0.774828