28
H13 C8 O2 F5
F -1.507126 3.229581 -2.422182
F -0.095856 2.656292 -0.829046
F -0.490976 5.350999 -1.013925
F 1.545748 4.764542 -1.539391
F 0.137324 5.346158 -3.104926
O 0.167222 1.142299 -3.293230
O 0.395044 -2.166042 -0.670377
C 0.137383 -1.198658 -2.844552
C 0.704042 0.144496 -2.407814
C 0.640268 2.447495 -3.101471
C -0.189663 3.225342 -2.072581
C 0.714275 -2.357055 -2.040475
C 0.251469 4.704504 -1.922701
C 0.870329 -3.203970 0.177764
C 0.467277 -2.878578 1.606659
H -0.952994 -1.181788 -2.733379
H 0.359285 -1.355394 -3.907887
H 1.804329 0.145889 -2.487107
H 0.431518 0.357748 -1.370349
H 0.550563 2.972879 -4.057413
H 1.692212 2.469934 -2.781653
H 0.295140 -3.311713 -2.400525
H 1.811043 -2.408897 -2.166985
H 0.441112 -4.170203 -0.139115
H 1.967729 -3.284727 0.090222
H -0.622407 -2.805089 1.689679
H 0.818123 -3.661320 2.289570
H 0.901297 -1.922563 1.919089