21
H10 C6 O1 F4
F 1.126648 -0.437145 0.161804
F 2.679271 -0.003204 -1.316656
F 2.925030 -1.773813 1.748703
F 2.783061 -2.527100 -0.318842
O 2.892700 0.827014 0.770290
C 2.473585 -0.218194 0.034624
C 3.257927 -1.490712 0.446022
C 2.202826 2.094117 0.568820
C 2.981773 3.158677 1.324379
C 4.755659 -1.378076 0.301179
C 4.398050 3.375970 0.780355
H 2.170208 2.308579 -0.505380
H 1.181413 1.991551 0.948209
H 2.403886 4.090688 1.260655
H 3.018651 2.880394 2.385434
H 5.012408 -1.167589 -0.739834
H 5.128061 -0.574536 0.940020
H 5.202207 -2.328988 0.603818
H 4.373188 3.674881 -0.275391
H 4.916296 4.162045 1.340898
H 4.991132 2.458500 0.855807