15
H8 C4 O1 F2
F 4.725841 -0.679199 -0.837205
F 4.741055 0.915863 -2.375118
O 2.259490 1.848673 -1.264752
C 2.731695 0.524715 -1.169230
C 0.839820 1.939836 -1.370472
C 4.246673 0.578206 -1.139987
C 0.463366 3.408648 -1.459046
H 2.420984 -0.088198 -2.030284
H 2.382689 0.036334 -0.244965
H 0.501388 1.392818 -2.265915
H 0.371869 1.465962 -0.491065
H 4.647655 1.288121 -0.410935
H 0.931500 3.871097 -2.334396
H -0.624130 3.516192 -1.545817
H 0.796897 3.945292 -0.564413