24
H13 C7 O1 F3
F 1.627984 -0.191805 -0.444572
F 3.045519 -1.173119 0.896635
F 3.757070 0.231129 -0.617007
O 2.248229 2.294769 0.576351
C 2.648666 1.139827 1.288076
C 1.701030 0.845492 2.461909
C 2.998124 3.496212 0.845320
C 2.756882 0.000429 0.269557
C 0.225997 0.674213 2.080601
C 4.318303 3.498682 0.073859
C 2.089975 4.654940 0.453297
H 3.669860 1.250508 1.679461
H 2.068467 -0.037300 2.999499
H 1.805598 1.697019 3.147360
H 3.200226 3.546025 1.928176
H 0.059102 -0.243418 1.508501
H -0.392555 0.626429 2.983943
H -0.115278 1.518070 1.472613
H 4.121152 3.449801 -1.002763
H 4.884080 4.413225 0.288734
H 4.946066 2.641724 0.340493
H 1.159214 4.626335 1.029110
H 2.589583 5.613115 0.636006
H 1.838587 4.590398 -0.611497