21
H2 C6 O1 F12
F 1.296366 2.124712 -1.778261
F 2.519391 2.670161 -0.054043
F 1.169375 0.961318 0.060302
F 5.125990 0.442788 -2.450460
F 3.671296 1.859244 -3.247085
F 4.819917 2.363546 -1.460823
F 2.692255 -1.741289 0.496703
F 1.089797 -2.520299 -0.761231
F 2.942296 -3.651116 -0.529122
F 3.469658 -1.599557 -4.151378
F 3.351812 -3.563280 -3.210367
F 1.537419 -2.391096 -3.526984
O 2.507486 -0.358193 -1.919606
C 3.134584 0.690763 -1.215269
C 3.061540 -1.652218 -1.828968
C 2.007017 1.634599 -0.750707
C 4.189915 1.369303 -2.114546
C 2.419723 -2.416304 -0.651186
C 2.837578 -2.315975 -3.202780
H 3.647833 0.347800 -0.311539
H 4.142742 -1.640082 -1.659662