19
H6 C5 O2 F6
F 1.794418 -2.848294 1.637102
F 3.412323 -2.257174 2.965499
F 3.335638 -4.298395 2.187415
F 3.809129 2.811441 -1.323997
F 5.420847 3.185367 0.104777
F 5.881827 2.646959 -1.963691
O 3.882248 -2.702951 0.809686
O 5.066087 1.128633 -0.517747
C 4.759704 -1.223918 -0.834263
C 3.773332 -1.341096 0.318644
C 4.694669 0.133756 -1.512360
C 3.125331 -3.014276 1.872622
C 5.044720 2.409527 -0.918153
H 5.775950 -1.408125 -0.468791
H 4.533362 -1.991724 -1.584020
H 2.743870 -1.166151 -0.014596
H 4.016568 -0.645638 1.126397
H 5.398889 0.189260 -2.347921
H 3.685329 0.360128 -1.874582