26
H10 C7 O3 F6
F 3.223087 -0.590299 -0.272128
F 1.232834 -0.551903 0.623798
F 0.815590 -1.296565 -4.958769
F 2.167252 0.367384 -4.533716
F 1.359044 1.574614 2.335737
F 3.327869 0.631568 2.207893
O 1.163996 -0.903299 -2.189577
O 2.345882 1.408860 0.312228
O 3.038793 -1.617759 -5.178143
C 1.453866 0.336280 -1.580608
C 2.065182 0.145702 -0.191577
C 2.176270 -1.472633 -2.997086
C 2.066236 -1.019983 -4.452140
C 2.558491 1.628048 1.673855
C 3.208105 2.974564 1.867112
C 3.060382 -1.327159 -6.591973
H 0.507298 0.867688 -1.453489
H 2.132071 0.955600 -2.176045
H 3.184001 -1.240359 -2.638858
H 2.034269 -2.555606 -2.975223
H 4.182539 2.981951 1.373647
H 2.571289 3.750854 1.436831
H 3.332965 3.152336 2.937675
H 2.136929 -1.671469 -7.065892
H 3.196791 -0.254746 -6.758619
H 3.914062 -1.880282 -6.984061