18
H9 C5 O1 F3
F 0.964948 -0.094043 0.224445
F 2.750037 -1.127100 0.962619
F 2.783932 3.620310 0.939889
O 2.839174 -0.076246 -1.035252
C 2.802877 1.245536 0.933828
C 2.356072 -0.018797 0.228793
C 2.363331 2.503587 0.195840
C 2.497637 -1.250098 -1.822170
C 3.125103 -1.063578 -3.190427
H 2.377803 1.234409 1.941545
H 3.893395 1.220404 1.016360
H 2.822484 2.574307 -0.793923
H 1.274367 2.560629 0.104573
H 2.889204 -2.137248 -1.314066
H 1.407197 -1.326702 -1.883115
H 4.213017 -0.968607 -3.108819
H 2.898086 -1.929803 -3.822369
H 2.732778 -0.165318 -3.678902