18
H9 C5 O1 F3
F 2.524514 1.264354 -3.070853
F 1.112467 1.199844 -1.403031
F 2.718665 3.458015 -1.377969
O 2.974544 -0.076516 -1.308333
C 2.393104 -1.276703 -1.891794
C 3.029465 -2.473543 -1.202946
C 2.457051 1.108970 -1.701195
C 2.709041 -2.555579 0.293641
C 3.228185 2.223288 -1.003841
H 1.309315 -1.253387 -1.732064
H 2.598633 -1.271870 -2.967096
H 2.668144 -3.374318 -1.717624
H 4.115342 -2.433957 -1.359168
H 1.626275 -2.619334 0.461221
H 3.172303 -3.440144 0.745142
H 3.079177 -1.670868 0.822129
H 3.121254 2.107678 0.078087
H 4.279402 2.168281 -1.299077