21
H11 C6 O1 F3
F 5.152873 0.378098 -3.361494
F 5.248862 1.774109 -1.686279
F 5.310657 2.523808 -3.736450
O 1.147846 0.933352 -2.152195
C 0.298797 -0.054281 -1.546979
C 2.538814 0.683468 -2.054404
C 3.225678 1.717040 -2.945508
C 0.380453 -0.019136 -0.018218
C -1.108874 0.235708 -2.054835
C 4.730677 1.598080 -2.931705
H 0.617692 -1.048699 -1.905501
H 2.773739 -0.336355 -2.398186
H 2.894515 0.783539 -1.019325
H 2.967163 2.726843 -2.612651
H 2.889445 1.604111 -3.980474
H 0.108409 0.977433 0.349480
H -0.313067 -0.750096 0.413999
H 1.384519 -0.260812 0.346878
H -1.133886 0.211402 -3.149130
H -1.817175 -0.506573 -1.669599
H -1.432013 1.229823 -1.724475