18
H10 C5 O1 F2
F 2.349195 1.422090 -3.019995
F 0.963468 1.349522 -1.324488
O 2.802479 0.038511 -1.293203
C 2.785911 -2.358429 -1.260333
C 2.171344 -1.121115 -1.897149
C 2.316310 1.254463 -1.638768
C 2.499552 -2.474653 0.240932
C 3.080604 2.365770 -0.964519
H 2.385235 -3.232973 -1.791146
H 3.868724 -2.346516 -1.441072
H 1.092103 -1.073401 -1.712148
H 2.350413 -1.093252 -2.977164
H 1.419549 -2.512045 0.433330
H 2.947441 -3.384575 0.656646
H 2.907495 -1.615328 0.783204
H 4.130426 2.315063 -1.262626
H 2.656943 3.326427 -1.265649
H 3.002856 2.251591 0.119268