25
H6 C7 O2 F10
F 1.353771 -0.377163 -0.333190
F 3.479326 -0.401502 -0.838295
F 2.413542 1.812861 -2.091483
F 0.741923 2.278621 -0.768243
F 4.198698 -0.210556 1.779473
F 4.000707 3.664051 -0.882785
F 2.110845 4.499110 -1.577587
F 2.052493 -0.734444 3.666986
F 1.651894 6.215142 0.800454
F 2.151902 4.839663 3.236374
O 2.628682 1.444062 0.138408
O 2.379734 4.072564 0.625891
C 2.584479 0.056618 0.068100
C 2.092641 2.239468 -0.851002
C 2.880874 -0.514162 1.459896
C 2.654155 3.676570 -0.643589
C 1.947241 0.050321 2.517356
C 2.742032 5.391711 0.988904
C 3.154540 5.390380 2.448446
H 2.786541 -1.603205 1.398698
H 2.231824 1.075279 2.769699
H 0.907983 0.017769 2.174950
H 3.555030 5.762010 0.354950
H 4.062420 4.789862 2.569587
H 3.328728 6.420510 2.775550