21
H11 C6 O1 F3
F 0.659725 1.852905 -0.573486
F 2.259173 3.271973 -1.006547
F 2.111945 2.362672 0.974406
O 2.632441 0.764046 -2.167510
C 2.864298 0.960508 -0.786939
C 2.691670 -0.597680 -2.596956
C 2.531268 -0.629492 -4.110867
C 1.966493 2.123397 -0.357849
C 4.337413 1.241889 -0.491181
C 3.669861 0.081234 -4.851022
H 2.510820 0.094894 -0.206037
H 3.657457 -1.043624 -2.306613
H 1.888973 -1.170839 -2.105929
H 2.475206 -1.682444 -4.419799
H 1.568207 -0.169061 -4.366246
H 4.505593 1.399197 0.578804
H 4.941294 0.388889 -0.815670
H 4.665557 2.128455 -1.041638
H 4.638508 -0.381731 -4.620001
H 3.524816 0.030967 -5.936323
H 3.721611 1.135389 -4.560728