16
H6 C4 O2 F4
F 5.073573 -2.775112 -0.338059
F 3.762842 -3.230963 -2.031252
F 0.506673 -0.114251 1.801935
F 1.544207 -0.307934 3.719936
O 3.356716 -1.374032 -0.806247
O 2.769150 -0.217601 1.821236
C 2.438664 -1.969760 0.142629
C 2.837629 -1.642793 1.571823
C 4.306175 -2.178802 -1.323264
C 1.672627 0.237484 2.459176
H 1.460187 -1.548794 -0.091890
H 2.404478 -3.055669 0.006855
H 2.188799 -2.181673 2.269982
H 3.874999 -1.923688 1.757817
H 4.956478 -1.603626 -1.982227
H 1.720571 1.323093 2.543471