18
H10 C5 O1 F2
F 3.007738 0.065666 -1.350593
F 3.177596 -1.186094 0.465189
O 2.333995 1.095570 1.996412
C 2.508622 -0.096250 -0.062692
C 2.911966 1.152545 0.711928
C 1.032557 -0.403223 -0.126146
C 2.724384 2.175229 2.841544
C 2.033159 2.002376 4.183166
H 4.011351 1.180985 0.759272
H 2.561338 2.035395 0.153684
H 0.500051 0.428232 -0.597341
H 0.881491 -1.312074 -0.715035
H 0.649271 -0.547414 0.886433
H 3.820442 2.172623 2.961369
H 2.441075 3.133474 2.373934
H 2.319702 1.049490 4.640619
H 2.314807 2.815401 4.862452
H 0.944924 2.013049 4.058845