21
H6 C6 O1 F8
F 4.718372 -2.343077 0.659601
F 4.834818 -1.522916 -1.384090
F 6.531570 -0.314861 0.387190
F 4.974678 1.032861 -0.339362
F 4.859214 0.220591 1.685126
F -1.775365 -3.237209 -0.084813
F -1.657286 -2.427304 -2.108347
F -1.619699 -4.588379 -1.793798
O 2.265860 -2.168752 -0.599923
C 4.400023 -1.267980 -0.116819
C 2.896770 -1.015748 -0.101222
C 0.847962 -2.057135 -0.636588
C 0.326742 -3.377486 -1.195613
C 5.218284 -0.060273 0.414430
C -1.180792 -3.408188 -1.295841
H 2.592418 -0.799541 0.933743
H 2.686917 -0.133873 -0.724745
H 0.451937 -1.878742 0.374429
H 0.546861 -1.216175 -1.279180
H 0.734479 -3.548330 -2.196266
H 0.638718 -4.206263 -0.553324