27
H6 C8 O1 F12
F 4.240710 0.309867 1.074325
F 4.713829 0.103968 -1.073058
F 0.805459 4.659700 0.450012
F -0.997101 3.557672 1.080766
F 4.707093 2.884973 1.124400
F 0.566680 4.638989 3.102967
F 7.117009 3.225628 0.115792
F 6.966500 1.125672 0.678887
F 6.848404 1.708346 -1.425764
F 1.133808 2.402908 4.546859
F -0.787695 2.241024 3.534403
F 0.935118 1.128446 2.785639
O 2.156331 2.171960 0.242993
C 4.156357 0.938626 -0.132675
C 0.369739 3.495994 1.034257
C 2.691854 1.118718 -0.524392
C 0.755053 2.322248 0.140754
C 4.976387 2.252061 -0.071804
C 0.962790 3.484450 2.457205
C 6.503051 2.058994 -0.168095
C 0.541041 2.300891 3.343097
H 2.641300 1.342729 -1.600487
H 2.180457 0.165029 -0.331028
H 0.440122 2.571484 -0.882725
H 0.228656 1.419240 0.473807
H 4.679622 2.911989 -0.892882
H 2.052906 3.470881 2.374467