21
H9 C6 O1 F5
F 2.652126 -1.450317 -3.134392
F 1.221662 -0.232866 -2.013751
F 2.898621 1.238694 -3.587218
F 3.231147 1.624880 -1.465218
F 4.658722 0.417214 -2.593529
O 3.016456 -1.077995 -0.936450
C 2.941574 -2.609706 0.932594
C 2.393445 -2.309326 -0.454103
C 2.417185 -1.712545 2.067313
C 2.551854 -0.572659 -2.082818
C 2.891973 -0.253670 2.021286
C 3.356130 0.708622 -2.441010
H 2.672436 -3.652926 1.149581
H 4.038581 -2.571902 0.890753
H 1.307537 -2.165643 -0.435381
H 2.640904 -3.105312 -1.163398
H 1.317497 -1.744304 2.066962
H 2.732960 -2.160281 3.019439
H 2.515829 0.270852 1.138618
H 2.551498 0.289365 2.911034
H 3.987584 -0.199319 1.992155