18
H4 C5 O1 F8
F 2.799374 1.191238 -0.153001
F 0.960583 -0.021097 -0.069238
F 3.686372 -1.456178 -3.818688
F 1.613320 -2.085579 -3.537027
F 2.272189 -1.908784 1.453612
F 4.114250 -0.690274 1.372818
F 2.822627 0.959244 -4.887984
F 1.975690 -0.811676 -5.898868
O 2.361123 -0.264807 -2.437365
C 2.328376 -0.090858 -0.070392
C 2.819435 -0.920089 -1.247292
C 2.428007 -0.979642 -3.584670
C 2.751414 -0.638304 1.305838
C 1.960704 -0.083822 -4.750008
H 3.911691 -0.960645 -1.235783
H 2.403740 -1.928341 -1.173060
H 2.373329 -0.012919 2.118257
H 0.952306 0.299833 -4.576809