13
H3 C5 O1 F4
F 0.854955 -0.025563 0.136276
F 2.651597 -0.378513 -1.059370
F 2.244378 -0.701558 2.447324
F 2.320949 -2.251577 0.874146
O 2.688238 1.237072 0.514851
C 2.221213 0.008530 0.189038
C 2.749226 -1.007973 1.221579
C 2.247962 2.322504 -0.338843
C 2.901047 3.553817 0.048627
C 3.699786 4.535760 0.087739
H 3.841746 -0.995450 1.262835
H 2.475405 2.088778 -1.388294
H 1.158477 2.437273 -0.247536