15
H5 C4 O1 F5
F 0.964351 0.214224 -0.089520
F 2.564520 0.509945 1.366252
F 2.660083 2.313282 -0.742782
F 2.484315 -3.799503 -0.978002
F 4.112104 -3.504116 0.493005
O 2.743086 -1.174281 -0.125249
C 2.326797 0.103943 0.072658
C 2.159250 -2.171117 0.720559
C 3.062118 0.998372 -0.917348
C 2.749539 -3.512137 0.336591
H 2.391483 -1.965584 1.770856
H 1.073737 -2.204602 0.579771
H 4.137274 0.924529 -0.733860
H 2.817817 0.680476 -1.934373
H 2.341516 -4.322752 0.950882