19
H2 C5 O2 F10
F 0.952039 -0.406100 -0.199007
F 2.429632 1.202325 -0.201864
F 4.327806 -0.523900 -1.291967
F 2.873732 -2.151982 -1.268433
F 2.857064 -2.189319 3.330415
F 4.362538 -0.612072 3.335656
F 2.554414 -0.397387 4.546871
F 3.559182 -1.637919 -3.904547
F 2.098366 -0.189044 -4.628506
F 4.008289 0.487870 -3.841779
O 2.836127 -0.651373 1.010556
O 2.407552 -0.310126 -2.478527
C 2.292589 -0.154840 -0.119050
C 3.008316 -0.809875 -1.337766
C 2.300855 -0.147625 2.240195
C 3.037783 -0.854879 3.366184
C 3.031390 -0.420676 -3.704844
H 2.474302 0.928072 2.328931
H 1.234533 -0.373771 2.323313