35
H6 C10 O3 F16
F 4.414144 1.830581 -3.787175
F 3.572155 3.765134 -3.240532
F 5.075091 3.764823 -0.891671
F 5.938201 1.815717 -1.462557
F 2.145602 0.196299 -2.631042
F 1.250230 1.195503 -0.161100
F 0.896835 3.140951 -1.086938
F -2.298961 4.698190 -4.065326
F -0.411442 3.643440 -3.803741
F -1.374218 3.698734 -6.389930
F 7.571065 3.918639 -1.946716
F 6.920033 2.951237 -3.789528
F 6.076279 4.879760 -3.210068
F 0.049227 1.460471 -5.391706
F -1.861321 0.523673 -4.897620
F -1.417290 1.081199 -6.957696
O 3.251755 2.014288 -1.863688
O -0.224990 1.334284 -1.857365
O -2.336318 2.639819 -3.156792
C 4.110791 2.623937 -2.725177
C 5.408469 2.968356 -1.934782
C 2.041223 1.541490 -2.401437
C 0.939668 1.789564 -1.354480
C -1.440604 1.663446 -1.154303
C -2.082893 2.903596 -1.754507
C -1.742557 3.438779 -4.066060
C -1.925198 2.834090 -5.469674
C 6.518850 3.699577 -2.751089
C -1.268237 1.454013 -5.670000
H 1.776421 2.043198 -3.334736
H -2.086736 0.793937 -1.290611
H -1.248545 1.807595 -0.085868
H -3.051555 3.092522 -1.281765
H -1.444979 3.780714 -1.641540
H -2.995835 2.729784 -5.667110