21
H12 C6 O1 F2
F 4.319865 0.240246 2.738211
F 4.714247 -1.074313 4.482443
O 2.899871 -2.472459 1.030085
C 2.445191 -2.660804 -0.318522
C 2.172053 -1.522901 1.795753
C 2.772456 -1.500935 3.196836
C 2.858338 -1.494659 -1.221015
C 3.037266 -3.986197 -0.784556
C 4.220529 -1.063073 3.192776
H 1.344084 -2.739754 -0.304051
H 1.109184 -1.810139 1.849857
H 2.229770 -0.520199 1.349164
H 2.722855 -2.502494 3.638079
H 2.211467 -0.811481 3.838524
H 3.949957 -1.393299 -1.225869
H 2.520681 -1.671891 -2.249092
H 2.426845 -0.544497 -0.888875
H 2.725769 -4.799976 -0.121574
H 2.710107 -4.217375 -1.804731
H 4.132359 -3.933577 -0.774718
H 4.878516 -1.676794 2.574093