21
H8 C6 O1 F6
F 4.714351 0.703030 1.154376
F 4.732396 0.453990 -1.045750
F 1.007457 4.264703 2.127761
F -0.899229 3.139322 2.159166
F 4.461051 3.257771 -1.295346
F 0.414356 1.091725 3.601723
O 2.265519 2.050853 0.956867
C 2.751383 1.224298 -0.082613
C 0.860361 2.209106 0.941063
C 4.270222 1.256619 -0.027126
C 0.469937 2.996689 2.181332
C 4.906152 2.635499 -0.128423
C 0.904075 2.395123 3.510108
H 2.437638 1.591951 -1.069229
H 2.422073 0.182711 0.041223
H 0.526074 2.768551 0.055649
H 0.345624 1.239158 0.976326
H 4.602915 3.241723 0.728084
H 5.993579 2.530424 -0.177144
H 1.994824 2.362495 3.557644
H 0.487125 2.987278 4.329510