21
H3 C6 O1 F11
F 1.211898 -0.295884 0.789735
F 3.322604 -0.830536 0.794891
F 3.949306 1.612718 -0.412707
F 1.808957 2.148447 -0.389570
F -0.343698 -1.091218 -1.529590
F 0.718753 -1.059813 -3.433179
F 0.191992 -2.969324 -2.507684
F 4.151652 -2.622036 -1.579360
F 3.244583 3.298601 1.592595
F 1.787947 1.872273 2.366600
F 3.910032 1.359873 2.335660
O 2.316274 -0.404915 -1.174331
C 1.949543 -1.752951 -1.507645
C 2.392308 -0.081571 0.138813
C 2.772412 1.426825 0.231497
C 0.607689 -1.703955 -2.250635
C 3.043082 -2.357601 -2.379690
C 2.931069 1.995736 1.675408
H 1.811298 -2.356445 -0.606597
H 2.705750 -3.299673 -2.822386
H 3.341202 -1.652621 -3.160527