18
H3 C5 O1 F9
F 3.152449 0.824041 -0.669596
F 1.166018 0.072873 -0.086021
F 2.543060 1.240520 1.963496
F 2.238895 -0.898402 2.272775
F 4.205872 -0.147057 1.695208
F 3.539887 -3.470832 -2.358917
F 1.398012 -3.501421 -1.931602
F 3.087026 -1.874751 -4.587972
F 1.910432 -3.743325 -4.580947
O 2.490748 -1.530094 -1.898054
C 2.505584 -0.150860 0.027413
C 2.865341 -1.529142 -0.516130
C 2.879331 0.023520 1.525307
C 2.393601 -2.742280 -2.496215
C 2.057975 -2.529369 -3.986581
H 3.941366 -1.695513 -0.417454
H 2.312149 -2.291050 0.039317
H 1.138975 -1.950889 -4.108707