21
H11 C6 O1 F3
F 0.293058 0.392549 4.015335
F 1.452330 2.125694 4.649106
F 1.649504 0.228099 5.721729
O 2.518310 0.865330 2.285938
C 3.185184 2.128325 2.034495
C 4.646654 1.863558 1.651209
C 2.374108 2.816759 0.944963
C 2.644568 0.340505 3.578821
C 5.485379 3.138409 1.492395
C 1.497010 0.777942 4.487562
H 3.150209 2.736569 2.949606
H 5.100891 1.229543 2.425162
H 4.657552 1.276826 0.723139
H 1.338358 2.947592 1.273305
H 2.790986 3.801252 0.708780
H 2.373911 2.208411 0.032896
H 3.582463 0.625674 4.074623
H 2.602551 -0.751498 3.515140
H 5.448316 3.753818 2.400826
H 6.535650 2.890587 1.301653
H 5.135489 3.754736 0.656787