21
H6 C6 O1 F8
F 4.725643 -1.373290 -0.271287
F 4.851345 0.567710 0.782076
F 1.121638 -4.100976 2.369297
F -0.808505 -3.529016 1.452633
F 6.361033 -1.344183 1.960562
F 4.611727 -0.820201 3.213927
F 0.452224 -5.481611 0.066554
F 0.454447 -3.573108 -1.057348
O 2.343274 -1.929519 1.091481
C 2.839826 -0.611478 0.949855
C 0.944642 -1.990119 1.301281
C 4.356042 -0.703239 0.866578
C 0.548037 -3.458777 1.302127
C 5.007269 -1.434979 2.054519
C 0.968660 -4.223855 0.033871
H 2.575419 0.013257 1.813390
H 2.475077 -0.136953 0.028004
H 0.660490 -1.559000 2.271552
H 0.394713 -1.481109 0.498543
H 4.713513 -2.486147 2.091068
H 2.055049 -4.277696 -0.063285