18
H3 C5 O1 F9
F 1.149847 -0.070080 -0.191262
F 2.789017 -1.157495 0.754385
F 3.181837 0.142720 -0.953797
F 2.312892 2.229505 3.178438
F 0.709428 0.977214 2.391381
F 2.521050 0.056749 3.188290
F 2.421641 4.210567 -1.639376
F 1.356360 4.965407 0.107081
F 3.390065 5.652022 -0.310622
O 2.291072 2.355699 0.436282
C 2.725304 1.199899 1.099012
C 2.439309 0.006617 0.166793
C 2.041411 1.098539 2.478957
C 3.167953 3.468969 0.498518
C 2.562414 4.577093 -0.350437
H 3.807222 1.195193 1.283202
H 3.276045 3.845913 1.521273
H 4.152932 3.225759 0.079934