21
H12 C6 O1 F2
F 4.984643 -0.589992 2.094269
F 5.365769 -2.210312 3.563016
O 2.691383 -2.557763 0.427316
C 2.341875 -1.650613 1.463031
C 3.174648 -2.008455 2.688500
C 1.963578 -2.393999 -0.789809
C 2.290122 -1.102411 -1.548219
C 4.659430 -1.895962 2.419304
C 3.790985 -0.921097 -1.798059
H 1.268137 -1.733513 1.699286
H 2.544774 -0.612086 1.166054
H 2.964285 -3.038691 2.996164
H 2.928291 -1.340650 3.522204
H 2.243311 -3.263048 -1.395634
H 0.881349 -2.456501 -0.584121
H 1.745342 -1.138897 -2.502272
H 1.892441 -0.233380 -1.007119
H 5.023491 -2.533730 1.611316
H 4.201780 -1.771790 -2.356948
H 3.987674 -0.010429 -2.375382
H 4.340182 -0.848829 -0.853220