22
H10 C6 O2 F4
F 0.525107 0.013801 0.150276
F 0.402845 2.182808 -0.031429
F -1.180699 1.084640 1.002475
F 7.025842 2.230135 3.477574
O 2.271988 1.235606 2.045306
O 5.053462 3.453208 1.516217
C 2.922209 2.452618 1.664975
C 4.409907 2.239887 1.898890
C 0.875366 1.285969 2.145871
C 6.467340 3.397157 1.445328
C 0.162008 1.137947 0.802007
C 7.159185 3.456235 2.794904
H 2.734850 2.691479 0.611833
H 2.558718 3.288080 2.282092
H 4.600576 1.997506 2.951295
H 4.769077 1.400466 1.284271
H 0.518552 2.219402 2.606006
H 0.561472 0.440689 2.765003
H 6.797992 2.496968 0.902424
H 6.772232 4.278751 0.868137
H 8.233037 3.640932 2.669612
H 6.715297 4.231408 3.428722