24
H7 C7 O1 F9
F 3.083713 0.956054 -0.693068
F 3.085077 -1.234916 -0.962439
F 2.933515 -4.039849 3.147886
F 0.442365 0.705805 1.759315
F 0.603122 2.048965 0.050812
F -1.047357 0.627321 0.166813
F 1.788464 -4.257596 5.599796
F 3.523009 -2.938301 5.696421
F 1.505771 -2.095612 5.742837
O 2.548331 -1.495541 1.827993
C 2.583484 -0.219230 -0.176159
C 3.143896 -0.360488 1.233194
C 1.067250 -0.265907 -0.337957
C 2.896101 -1.656602 3.191252
C 2.252464 -2.946563 3.669661
C 0.276035 0.789200 0.411616
C 2.274641 -3.070868 5.196089
H 4.234630 -0.469880 1.151246
H 2.914605 0.554593 1.795640
H 0.841438 -0.158944 -1.402076
H 0.720497 -1.243990 0.001679
H 3.985754 -1.730771 3.317468
H 2.524129 -0.810216 3.788292
H 1.210077 -3.005274 3.340191