18
H9 C5 O1 F3
F 1.379999 -0.628333 0.551752
F 3.521876 -1.070820 0.572800
F 2.819420 0.727337 2.521770
O 2.721322 0.354631 -0.997009
C 2.253626 -0.454998 -2.134143
C 2.614881 -0.070430 0.279475
C 2.625482 -1.930974 -2.027740
C 0.763630 -0.215896 -2.365230
C 2.859056 1.126539 1.193242
H 2.820533 -0.001923 -2.953029
H 2.077048 -2.428402 -1.222833
H 2.366542 -2.421489 -2.973373
H 3.696709 -2.058774 -1.850883
H 0.546748 0.857221 -2.384707
H 0.472691 -0.643628 -3.332132
H 0.159312 -0.682625 -1.582669
H 3.845586 1.544934 0.976956
H 2.075247 1.869527 1.023532