18
H7 C5 O1 F5
F 2.550690 3.037939 -1.267561
F 1.082482 1.953512 -0.059442
F 2.556838 -0.661083 -4.845500
F 4.530134 2.448772 0.612480
F 2.757669 3.471994 1.445609
O 2.856723 0.832203 -0.889515
C 2.246909 0.391850 -2.133604
C 2.899694 -0.934713 -2.489890
C 2.423950 2.002241 -0.382422
C 2.321747 -1.530670 -3.762025
C 3.208474 2.304555 0.909793
H 1.167724 0.280794 -1.978301
H 2.426124 1.144472 -2.905414
H 3.979867 -0.791445 -2.607764
H 2.748181 -1.649634 -1.670256
H 2.795999 -2.487076 -4.004953
H 1.235788 -1.670285 -3.696761
H 3.087586 1.499882 1.640177