22
H7 C6 O2 F7
F 0.577725 3.522875 -0.750964
F 0.737992 1.520097 0.108638
F 2.972548 4.247127 0.504961
F 1.422167 3.467806 1.873283
F 1.843752 -3.427840 -1.930588
F -0.300364 -3.107844 -2.209656
F 1.127350 -2.348544 -3.684589
O 2.352815 2.243879 -1.296668
O 2.245725 -0.621991 -1.650106
C 1.793594 1.643104 -2.490712
C 2.460032 0.295387 -2.721792
C 1.491309 2.593806 -0.325558
C 0.978394 -1.227830 -1.573270
C 2.288498 3.130449 0.878889
C 0.923290 -2.538894 -2.353194
H 0.708790 1.556143 -2.389151
H 2.009643 2.317236 -3.325680
H 2.119717 -0.115892 -3.681719
H 3.544487 0.426764 -2.767247
H 0.784458 -1.460311 -0.522891
H 0.165087 -0.590194 -1.941678
H 2.991901 2.379106 1.247673