21
H8 C6 O1 F6
F 0.679955 1.203596 -0.945355
F 1.982399 2.654348 -1.922212
F 2.073454 2.390708 0.242005
F 5.239954 0.032996 -1.178953
F 4.732080 2.022595 -1.912698
F 4.690275 1.606205 0.229686
O 2.749983 0.020689 -2.341059
C 2.956530 0.617998 -1.098030
C 2.657174 -1.419039 -2.337018
C 1.919924 1.745240 -0.935780
C 4.419353 1.095840 -0.991614
C 2.530175 -1.880055 -3.780579
C 3.763915 -1.548716 -4.628059
H 2.792897 -0.069911 -0.258014
H 3.559668 -1.839202 -1.871495
H 1.778269 -1.715193 -1.746042
H 2.357458 -2.964934 -3.765672
H 1.633619 -1.420114 -4.215553
H 4.664338 -2.019778 -4.213347
H 3.638946 -1.907453 -5.655943
H 3.934675 -0.468072 -4.661480