15
H4 C4 O1 F6
F 1.170098 -0.023882 -0.181498
F 2.920612 1.323217 -0.070555
F 2.948492 -0.213718 -2.291374
F 4.534209 -0.834719 -0.875630
F 4.006367 -2.385195 3.092091
F 1.975691 -1.837302 3.697658
O 2.498201 -1.841796 1.502185
C 2.523338 0.019401 0.029797
C 2.850016 -0.449782 1.438099
C 3.181812 -0.807406 -1.090086
C 2.691672 -2.451842 2.700768
H 3.917455 -0.311376 1.627086
H 2.255936 0.137668 2.143726
H 2.802686 -1.831484 -1.112070
H 2.387086 -3.495654 2.623383