24
H14 C7 O1 F2
F 2.553304 -3.248023 0.505015
F 1.214361 -1.710440 -0.298903
O 3.115770 -1.074434 0.737168
C 3.062983 0.327488 2.683285
C 2.560320 -0.973772 2.074518
C 2.657324 1.593524 1.910237
C 2.564124 -1.990452 -0.091975
C 3.279005 -2.044907 -1.426350
C 1.141220 1.800175 1.797176
C 4.757024 -2.424773 -1.298880
H 2.673771 0.377007 3.710765
H 4.157202 0.278171 2.760700
H 1.468448 -0.996653 2.010221
H 2.895407 -1.840100 2.654636
H 3.106491 2.459931 2.414185
H 3.097915 1.553412 0.906416
H 2.736291 -2.767644 -2.044370
H 3.163898 -1.058680 -1.888626
H 0.664915 1.798624 2.786914
H 0.912668 2.760173 1.319381
H 0.668503 1.015590 1.195050
H 4.869829 -3.409388 -0.833097
H 5.222981 -2.460538 -2.289562
H 5.297348 -1.693050 -0.690222