24
H8 C7 O1 F8
F 1.858818 2.492387 -3.085545
F 0.451033 1.930452 -1.511905
F 2.125022 2.726362 0.450508
F 1.068348 -3.021855 -2.573062
F 2.353440 -2.436018 -4.276193
F 4.301880 4.305386 -0.210318
F 4.615374 2.178777 -0.551846
F 4.282852 3.517027 -2.246126
O 2.410347 0.823309 -1.667035
C 2.800240 -1.459387 -2.166183
C 1.882224 -0.279906 -2.453942
C 1.797171 2.009277 -1.793659
C 2.404556 3.068547 -0.856208
C 2.382010 -2.716063 -2.913679
C 3.928193 3.252220 -0.971924
C 3.239937 -3.939542 -2.687230
H 3.826169 -1.207898 -2.454962
H 2.796880 -1.675632 -1.092647
H 0.855362 -0.482520 -2.141117
H 1.897812 -0.006870 -3.511895
H 1.930294 4.027245 -1.084468
H 4.268182 -3.738996 -3.001481
H 3.232279 -4.211091 -1.627761
H 2.838989 -4.769771 -3.274882