15
H4 C4 O1 F6
F 1.415623 -0.438677 -0.762600
F 3.555169 -0.129835 -1.062327
F 1.899463 -1.239144 1.867079
F 2.972769 -2.393123 0.357609
F 4.039017 -0.920478 1.565216
F 0.751003 2.343281 -0.277634
O 2.492769 1.100982 0.498174
C 2.564234 -0.103020 -0.116204
C 2.133045 2.229279 -0.299898
C 2.876559 -1.191912 0.949323
C 2.757905 3.453453 0.318189
H 2.422795 2.056125 -1.339894
H 3.848449 3.376678 0.277988
H 2.436048 4.342747 -0.230913
H 2.440323 3.538522 1.361603