24
H10 C7 O1 F6
F 2.040939 3.346241 0.973281
F 1.101861 1.377181 1.149333
F 4.346814 2.418658 2.189714
F 3.432164 1.718215 4.596915
F 2.096032 3.214871 3.747238
F 1.485513 1.118391 3.819273
O 2.983420 1.586695 -0.073831
C 3.063484 1.076507 -2.433261
C 2.399953 1.935062 -1.366082
C 2.327985 2.005636 1.021044
C 3.187279 1.673126 2.255952
C 2.584853 -0.383735 -2.504499
C 2.528853 1.950150 3.619364
C 2.907475 -1.239903 -1.272215
H 2.863585 1.562626 -3.398185
H 4.150928 1.116381 -2.282844
H 1.318744 1.761704 -1.324937
H 2.586000 3.000118 -1.533963
H 3.442072 0.610217 2.218208
H 1.499663 -0.393950 -2.683957
H 3.043449 -0.844025 -3.390206
H 2.369393 -0.890423 -0.385874
H 2.628266 -2.285931 -1.446030
H 3.980026 -1.209500 -1.042489