16
H4 C4 O2 F6
F 3.542296 -0.476780 -0.757231
F 1.387512 -0.155299 -0.703492
F 4.175833 3.783568 0.094700
F 3.041972 4.099149 -1.747231
F 2.025170 4.090211 0.187801
F 3.652492 -2.716838 1.114557
O 2.814092 2.192518 -0.725382
O 2.431565 -0.787859 1.190126
C 2.755115 1.407623 0.470536
C 2.531480 -0.035505 0.046762
C 3.010598 3.513114 -0.549339
C 2.378128 -2.189242 1.035950
H 1.920308 1.722997 1.102025
H 3.697196 1.466541 1.022009
H 1.801258 -2.567920 1.880148
H 1.950605 -2.469155 0.070304