19
H5 C5 O2 F7
F 0.783354 -0.129598 0.201090
F 2.210124 0.346829 -1.382921
F 4.185662 -1.111140 -0.057298
F 2.778885 -1.577357 1.549092
F 3.293473 2.757246 -0.526141
F 1.196442 2.609346 0.085922
F 1.975057 2.828910 2.765749
O 2.653985 1.001308 0.743134
O 2.312143 -2.268368 -0.546882
C 2.099028 0.034256 -0.070317
C 2.851509 -1.300604 0.207640
C 2.467635 2.349892 0.486016
C 2.831794 3.153298 1.727785
C 2.895640 -3.585464 -0.413910
H 3.858444 2.915968 2.019049
H 2.725895 4.215871 1.492363
H 3.948639 -3.563872 -0.707533
H 2.788088 -3.944535 0.613168
H 2.325340 -4.214755 -1.096357