22
H8 C6 O2 F6
F 0.517908 -3.315707 -3.158975
F 2.460328 -4.306963 -3.148968
F 1.927395 -2.971289 -4.795517
F 6.772359 -1.341078 1.338422
F 5.327083 -0.006513 2.294302
F 4.871719 -2.131609 2.058418
O 2.211194 -1.940151 -1.342981
O 5.052225 -1.691420 -0.891376
C 2.902342 -2.906853 -0.543254
C 4.412261 -2.967860 -0.777616
C 2.432849 -1.943403 -2.731919
C 4.809936 -0.732881 0.109011
C 1.822245 -3.142632 -3.454206
C 5.458073 -1.061691 1.452291
H 2.674559 -2.609423 0.483405
H 2.492315 -3.914344 -0.695429
H 4.858990 -3.565866 0.028097
H 4.644432 -3.463109 -1.723760
H 3.496530 -1.897192 -2.996089
H 1.936199 -1.051671 -3.122644
H 5.263774 0.197127 -0.242606
H 3.741430 -0.557632 0.284925