21
H5 C6 O1 F9
F 4.607871 2.413398 0.446305
F 4.458966 0.437890 1.413430
F 0.636427 3.783736 2.729182
F -1.126328 2.449841 2.731597
F 6.137999 0.488855 -0.750097
F 4.378800 -0.764135 -1.073269
F 4.517894 1.192448 -2.034746
F 0.295299 2.282592 5.029156
F 0.492811 0.432033 3.828544
O 2.066235 1.785876 1.326317
C 2.587545 1.193937 0.159636
C 4.104481 1.154794 0.308729
C 0.653186 1.863539 1.334496
C 0.239721 2.474295 2.665725
C 4.810737 0.504204 -0.911165
C 0.831655 1.759031 3.893850
H 2.338775 1.780170 -0.736439
H 2.222204 0.164992 0.030729
H 0.274182 2.512198 0.531757
H 0.194371 0.869012 1.250050
H 1.919331 1.848973 3.927235