18
H6 C5 O1 F6
F 2.866190 -2.759311 -1.811983
F 1.069973 -1.522314 -1.659466
F 2.775863 -0.735463 -3.646011
F 2.611188 0.766809 -2.072053
F 4.407460 -0.466127 -2.222452
F 2.614069 -3.768034 3.236269
O 2.728744 -1.230267 -0.156642
C 2.192430 -2.118905 0.864558
C 2.722792 -1.612630 2.196622
C 2.423183 -1.519613 -1.428862
C 3.071820 -0.461105 -2.365188
C 2.195146 -2.428638 3.364187
H 1.098418 -2.078887 0.823752
H 2.527420 -3.139348 0.662127
H 3.818256 -1.642884 2.190429
H 2.421067 -0.566285 2.336328
H 2.583583 -2.056379 4.317560
H 1.098977 -2.440572 3.398545