21
H12 C6 O1 F2
F 1.118844 -0.064662 -0.498597
F 2.743887 1.328185 -0.029232
O 2.867773 -0.795028 0.728568
C 2.498658 -0.012171 -0.312439
C 2.270888 -0.509097 2.019723
C 3.213298 -0.403757 -1.589509
C 2.703592 -1.611187 2.974883
C 2.940669 -1.851895 -2.006735
C 2.181037 -2.996344 2.577550
H 2.884423 0.299216 -2.361870
H 4.282382 -0.237141 -1.419997
H 2.617695 0.474290 2.354702
H 1.180827 -0.485125 1.909067
H 3.800091 -1.619843 3.029170
H 2.338427 -1.340912 3.975229
H 1.870599 -2.018201 -2.169047
H 3.467324 -2.080337 -2.939609
H 3.283775 -2.551015 -1.237743
H 2.550689 -3.282976 1.587554
H 2.502943 -3.758779 3.296178
H 1.084028 -3.007405 2.542441