24
H2 C7 O1 F14
F 1.243583 -0.091919 -0.103709
F 2.720923 1.628753 1.678377
F 4.386425 1.507132 0.240914
F 2.228733 -0.925034 2.213932
F 2.494699 -2.357905 0.569362
F 2.935281 3.687360 -0.120296
F 2.573673 2.320666 -1.779665
F 1.060927 2.583560 -0.228384
F 4.493215 -2.464792 2.303269
F 5.176748 -1.628239 0.408806
F 4.903566 -0.332276 2.149832
F 2.049773 0.005709 -3.738956
F 4.141907 -0.606984 -3.788015
F 2.569959 -2.058589 -4.241409
O 3.224796 -0.325457 -1.204110
C 2.624936 -0.073065 -0.002604
C 3.044822 1.385443 0.384458
C 2.932622 -1.171165 1.088761
C 2.377972 2.515749 -0.469699
C 4.420407 -1.395947 1.495698
C 2.802233 -1.437582 -2.000878
C 2.897359 -1.002936 -3.456450
H 3.467449 -2.289359 -1.841333
H 1.768541 -1.717234 -1.793308