41
H12 C12 O3 F14
F 2.514014 5.936084 0.637157
F -2.561595 3.705625 -2.030556
F 1.601982 6.622062 -1.931522
F 2.715977 8.153721 -0.862632
F 3.652197 7.087624 -2.520373
F 4.931670 7.399861 0.478625
F 5.062782 5.305167 1.059465
F 5.679375 5.919759 -0.938852
F -4.875651 4.738311 -0.705827
F -4.700978 2.585527 -0.971181
F -4.370254 3.468440 0.994176
F -0.744164 5.192553 -0.430487
F -2.613893 6.159954 -0.968667
F -2.317978 5.421179 1.063714
O 0.358736 1.636206 -1.677738
O 3.207108 4.683946 -1.138211
O -1.884866 2.853933 -0.026569
C 2.638709 2.359956 -1.114839
C -0.931911 0.665147 0.210237
C 3.458428 3.436983 -0.423980
C -2.174546 1.437213 -0.218130
C 1.134827 2.644895 -1.036222
C 0.094243 0.467302 -0.918541
C 3.329785 5.865776 -0.486288
C -2.652846 3.781814 -0.647872
C 2.815330 6.961840 -1.473530
C 4.780961 6.141852 0.036915
C -4.184051 3.652716 -0.326603
C -2.071628 5.173910 -0.237660
H 2.939620 2.277625 -2.165667
H 2.878506 1.403952 -0.630739
H -1.236677 -0.330294 0.560061
H -0.492424 1.174145 1.076298
H 3.158307 3.559374 0.621006
H 4.531338 3.225402 -0.467755
H -3.036746 1.182916 0.405600
H -2.418471 1.263326 -1.269771
H 0.820747 2.781418 0.008085
H 0.902294 3.571180 -1.563759
H -0.302101 -0.249320 -1.646646
H 1.019183 0.035632 -0.503221