18
H5 C5 O1 F7
F 0.981740 -0.182771 -0.157100
F 2.086847 1.625803 -1.791253
F 4.122210 1.030607 -1.276042
F 2.799893 -0.357895 -2.320328
F 2.047240 2.286630 0.810346
F 1.762645 0.652429 2.219252
F 3.770121 1.167121 1.542468
O 3.032243 -1.119520 0.188559
C 2.349408 0.032079 -0.015828
C 2.850805 0.599655 -1.382615
C 2.484953 1.066013 1.156691
C 2.740795 -1.927226 1.367909
C 3.334425 -3.297733 1.109940
H 3.195905 -1.447260 2.240231
H 1.656664 -1.971034 1.505809
H 4.413159 -3.225392 0.937473
H 3.163250 -3.940762 1.980830
H 2.870495 -3.762166 0.234128