24
H9 C7 O1 F7
F 1.429107 1.863871 -1.423661
F 2.077760 1.332303 -3.914247
F 3.413901 2.896005 -3.208196
F 4.153541 0.858161 -3.438335
F 3.539824 3.247201 -0.561600
F 3.280538 1.495392 0.696785
F 4.898760 1.551640 -0.767877
O 2.660532 -0.065030 -1.309284
C 1.998136 -1.072522 -2.155249
C 2.672802 1.253753 -1.594582
C 2.555539 -2.405516 -1.663235
C 0.483583 -0.963142 -2.030418
C 3.093610 1.600591 -3.066141
C 3.619268 1.907181 -0.534112
C 4.069753 -2.544846 -1.852018
H 2.314198 -0.910399 -3.190679
H 2.288512 -2.522516 -0.604658
H 2.032093 -3.198633 -2.213385
H 0.114861 -0.008379 -2.412288
H 0.014343 -1.769367 -2.605965
H 0.181297 -1.060150 -0.982186
H 4.607727 -1.776184 -1.288575
H 4.414809 -3.525760 -1.506591
H 4.346589 -2.443437 -2.909078