21
H13 C6 O1 F1
F 0.999815 -0.374721 -0.157550
O 2.708305 0.316655 1.212503
C 2.381632 0.008146 -0.101269
C 2.296203 1.566402 1.811917
C 3.181465 -1.230902 -0.468637
C 2.530263 1.154026 -1.097436
C 0.781584 1.645707 2.005824
C 3.051690 1.632422 3.135127
H 2.633383 2.393635 1.171543
H 2.864089 -1.606134 -1.445679
H 4.249177 -0.992318 -0.500669
H 3.012785 -2.003349 0.286612
H 2.338487 0.781273 -2.107359
H 1.814350 1.954056 -0.892579
H 3.546569 1.559687 -1.056242
H 0.435135 0.790970 2.597162
H 0.525728 2.569814 2.538699
H 0.246718 1.632535 1.053128
H 4.131313 1.560897 2.966733
H 2.837202 2.576458 3.648925
H 2.748319 0.804038 3.785495