24
H12 C7 O1 F4
F 1.392786 -0.925057 -0.226690
F -1.427811 2.559760 3.119264
F -1.833730 0.417735 3.226890
F -1.362208 1.531652 5.044977
O 2.217371 0.733414 2.061006
C 2.843849 0.717436 0.778511
C 4.313542 1.102891 0.982720
C 0.812827 0.974077 2.071152
C 0.422573 1.118939 3.540237
C 2.730209 -0.653714 0.125802
C 4.480581 2.515339 1.552076
C -1.047871 1.405154 3.730581
H 2.355811 1.457426 0.122156
H 4.773591 0.370071 1.659421
H 4.835312 1.023687 0.019636
H 0.583877 1.898121 1.519522
H 0.266621 0.149170 1.600935
H 0.656048 0.198216 4.083497
H 0.984107 1.937423 4.000900
H 3.048376 -1.437775 0.821077
H 3.320218 -0.702949 -0.796327
H 3.975990 2.603366 2.519096
H 5.540184 2.756277 1.693734
H 4.052630 3.265811 0.875028