18
H11 C5 O1 F1
F 2.809909 -0.841457 -0.932438
O 2.630415 2.338396 0.701121
C 3.115994 1.449929 -0.302901
C 2.463918 0.112962 0.041229
C 4.641150 1.355837 -0.331344
C 2.787846 3.726997 0.421584
C 2.087262 4.510232 1.519947
H 2.743741 1.768640 -1.291532
H 1.373755 0.203852 0.050619
H 2.816066 -0.255678 1.010953
H 4.954995 0.583466 -1.041432
H 5.096893 2.303205 -0.637573
H 5.018755 1.093678 0.664282
H 3.855041 3.993268 0.382804
H 2.348861 3.957511 -0.563788
H 2.525724 4.275476 2.495929
H 2.188203 5.587526 1.342397
H 1.021692 4.258559 1.551584