21
H13 C6 O1 F1
F 4.748680 -1.031197 0.577650
O 2.235082 -1.038901 -1.985182
C 2.789757 -1.458799 -0.738389
C 0.800143 -1.002848 -2.056250
C 4.110500 -0.702367 -0.632962
C 2.974893 -2.973896 -0.693610
C 0.265693 0.307295 -1.472566
C 0.434004 -1.175872 -3.525772
H 2.147976 -1.137901 0.096439
H 0.394082 -1.851173 -1.482176
H 3.940817 0.378595 -0.640326
H 4.783659 -0.979051 -1.451793
H 3.438008 -3.277483 0.251409
H 2.010057 -3.484906 -0.786201
H 3.615985 -3.296594 -1.522206
H 0.648677 1.157119 -2.049556
H -0.830451 0.327473 -1.505701
H 0.572362 0.435957 -0.428274
H 0.817948 -2.127711 -3.907076
H -0.653943 -1.154312 -3.658652
H 0.873020 -0.365607 -4.119617