18
H10 C5 O1 F2
F 3.375562 1.518697 0.176498
F 2.017984 -4.785935 2.320486
O 2.906552 -2.658017 0.322250
C 3.034050 -0.518364 1.383019
C 2.357026 -1.883229 1.393399
C 2.282546 -3.908109 0.090529
C 2.790528 0.238516 0.087453
C 2.665044 -4.990649 1.083864
H 4.113038 -0.641780 1.533983
H 2.647575 0.073520 2.222467
H 2.518588 -2.383335 2.356067
H 1.267669 -1.781356 1.249122
H 1.185265 -3.803411 0.069207
H 2.615961 -4.228082 -0.904445
H 1.719423 0.387783 -0.098360
H 3.241810 -0.267462 -0.770123
H 2.354305 -5.976785 0.718208
H 3.743242 -4.982563 1.275824