24
H15 C7 O1 F1
F 3.347867 -6.849561 0.256427
O 2.614274 -2.698897 -0.289495
C 0.662470 -2.052533 -1.702468
C 2.187342 -2.123619 -1.520348
C -0.002533 -1.340020 -0.518492
C 0.338205 -1.360381 -3.034381
C 2.369952 -4.092188 -0.164743
C 3.145464 -4.592278 1.049091
C 2.903457 -6.060957 1.340947
H 0.272784 -3.080063 -1.754900
H 2.603572 -1.108696 -1.516952
H 2.641072 -2.673336 -2.363328
H 2.696597 -4.622045 -1.073206
H 1.293449 -4.291540 -0.030711
H 0.344898 -0.300167 -0.449050
H -1.093478 -1.323786 -0.631645
H 0.241093 -1.833359 0.428451
H 0.798671 -1.880381 -3.884096
H -0.744245 -1.330382 -3.206414
H 0.703608 -0.324402 -3.035617
H 2.843447 -4.009602 1.930283
H 4.216638 -4.416372 0.895401
H 1.837780 -6.284597 1.474970
H 3.457187 -6.394215 2.225206