15
H9 C4 O1 F1
F 2.337726 -2.226238 2.861933
O 2.973095 -2.538686 -1.326570
C 2.911859 -1.314066 0.715865
C 2.287607 -2.449041 -0.087125
C 2.219282 -1.080075 2.045283
C 2.506038 -3.596812 -2.143776
H 2.857227 -0.387255 0.128532
H 3.973387 -1.529514 0.885738
H 2.367018 -3.398491 0.465575
H 1.213896 -2.251944 -0.260702
H 1.145455 -0.891543 1.923311
H 2.672486 -0.248462 2.595359
H 2.637541 -4.573935 -1.651255
H 1.440526 -3.469994 -2.396826
H 3.096974 -3.576284 -3.063202