15
H6 C4 O1 F4
F 2.860716 -2.495767 -2.696999
F 1.129881 2.806174 -3.159688
F 2.954804 3.822650 -2.513408
F 3.004577 2.428820 -4.196593
O 2.764604 1.696586 -2.081245
C 2.802146 -0.553365 -1.295711
C 2.304273 0.357177 -2.407431
C 2.343005 -1.988321 -1.488382
C 2.470439 2.658984 -2.966526
H 2.423829 -0.191776 -0.330543
H 3.896756 -0.518257 -1.255748
H 2.713885 0.062487 -3.377469
H 1.209588 0.364440 -2.461450
H 1.251003 -2.068082 -1.552507
H 2.706794 -2.634250 -0.682867