15
H9 C4 O1 F1
F 4.748450 0.882437 -0.936673
O 2.239376 1.825061 1.447518
C 2.715894 1.343879 0.204888
C 0.818126 1.874886 1.533228
C 4.234457 1.355231 0.283163
C 0.439463 2.405235 2.905758
H 2.380101 1.985057 -0.626525
H 2.359693 0.318910 0.010798
H 0.421579 2.528063 0.737653
H 0.401715 0.865812 1.374471
H 4.594891 0.696817 1.079834
H 4.615354 2.369311 0.440217
H 0.851007 3.409155 3.055956
H -0.651154 2.456352 3.005561
H 0.831418 1.750413 3.691483