22
H13 C6 O2 F1
F 1.453961 2.365689 -1.891206
O 1.100913 -0.164145 -3.614053
O -0.020467 -1.926304 0.071434
C 0.546407 -2.040415 -2.253755
C 1.223893 -0.676727 -2.282766
C 0.655101 -2.719366 -0.894953
C 1.811653 1.031042 -3.871148
C 1.187585 2.280603 -3.273417
C 0.031209 -2.472398 1.375678
H -0.511445 -1.924086 -2.518251
H 1.005739 -2.686507 -3.013082
H 2.292399 -0.770646 -2.022132
H 0.761073 0.001888 -1.558352
H 0.206743 -3.726841 -0.936699
H 1.714732 -2.840599 -0.604707
H 1.815643 1.144859 -4.962475
H 2.857554 0.951630 -3.529493
H 0.099142 2.270462 -3.395661
H 1.610596 3.181007 -3.735562
H -0.441139 -3.468019 1.414627
H 1.069930 -2.561220 1.734417
H -0.516420 -1.790429 2.031453