21
H13 C6 O1 F1
F 5.300933 1.202856 3.908344
O 2.248907 0.526329 2.154874
C 0.826989 0.646310 2.319643
C 0.352220 2.082709 2.051400
C 0.214979 -0.381427 1.374284
C -1.150366 2.291019 2.283318
C 3.045525 1.134274 3.155534
C 4.452273 0.585132 2.972664
H 0.576063 0.376777 3.361583
H 0.906927 2.767836 2.704880
H 0.620788 2.345075 1.018983
H 0.633456 -1.372538 1.576770
H -0.871702 -0.432744 1.496211
H 0.438501 -0.119093 0.333326
H -1.443139 1.974258 3.293092
H -1.415806 3.349133 2.178407
H -1.757126 1.726652 1.566620
H 2.675525 0.885777 4.163423
H 3.068567 2.229651 3.060182
H 4.833785 0.808223 1.971217
H 4.484549 -0.494600 3.148945