24
H16 C7 O1
O 1.224625 0.047004 -0.123365
C 2.519188 -2.202640 1.253139
C 3.094778 -1.488481 2.487595
C 1.003380 -2.039448 1.040259
C 2.488131 -1.929768 3.826735
C 0.535849 -0.591652 0.943379
C 3.169880 -1.270250 5.031585
C 0.873087 1.408126 -0.276089
H 2.742681 -3.277116 1.325347
H 3.035576 -1.832690 0.359494
H 4.179637 -1.668051 2.515488
H 2.976632 -0.401005 2.375496
H 0.445550 -2.518535 1.856288
H 0.715416 -2.559097 0.116972
H 1.415204 -1.693688 3.847220
H 2.562047 -3.024211 3.913887
H 0.729324 -0.051862 1.886822
H -0.552858 -0.554621 0.763459
H 3.088864 -0.176531 4.978698
H 2.719327 -1.593543 5.977952
H 4.238177 -1.520558 5.065973
H 1.455763 1.799928 -1.114283
H -0.200775 1.525945 -0.497508
H 1.110096 1.989704 0.630476