18
H12 C5 O1
O 1.155367 0.104531 0.171513
C 1.080579 2.496628 0.030769
C 0.756394 1.180364 -0.666347
C 0.922281 -1.176440 -0.395192
C 2.581101 2.694276 0.273364
C 1.388790 -2.232843 0.593676
H 0.685455 3.314426 -0.588099
H 0.537842 2.527058 0.984816
H 1.288130 1.118582 -1.633483
H -0.325258 1.110577 -0.876651
H -0.152405 -1.298974 -0.617555
H 1.468773 -1.269057 -1.350116
H 3.135830 2.689053 -0.674411
H 2.778250 3.650483 0.772524
H 2.979716 1.890242 0.900288
H 0.839111 -2.143392 1.537027
H 1.223431 -3.237504 0.186501
H 2.456963 -2.113410 0.805546