37
H22 C10 O5
O 1.226437 -0.360051 0.817372
O -1.386133 -1.608617 1.253786
O 3.633180 2.150204 1.730780
O -3.434623 -3.691448 1.429525
O 3.560040 5.796739 1.768368
C 0.991524 -1.728390 1.104793
C 2.373115 0.162658 1.464692
C -0.325466 -2.149339 0.484493
C 2.488107 1.627180 1.070357
C -2.646629 -1.575831 0.609830
C 3.963651 3.489137 1.388956
C -3.229120 -2.937983 0.250348
C 3.105076 4.506753 2.140575
C -3.963806 -4.979897 1.180022
C 2.850346 6.844420 2.404210
H 1.806394 -2.348308 0.691979
H 0.948473 -1.894765 2.192998
H 2.279020 0.078159 2.559102
H 3.283215 -0.379004 1.158409
H -0.369191 -1.785000 -0.555304
H -0.377017 -3.249765 0.469347
H 2.597852 1.713044 -0.022318
H 1.568931 2.154636 1.363428
H -3.317310 -1.071869 1.312292
H -2.588132 -0.972265 -0.313658
H 5.012613 3.630095 1.666944
H 3.871927 3.653616 0.304155
H -4.185182 -2.774960 -0.280019
H -2.562844 -3.482880 -0.440899
H 2.038753 4.388972 1.885485
H 3.212417 4.348445 3.226406
H -4.947539 -4.924371 0.684909
H -3.286002 -5.578758 0.549156
H -4.078330 -5.472415 2.149153
H 2.952390 6.791216 3.500223
H 3.280400 7.784601 2.048994
H 1.778756 6.817311 2.147511