41
H26 C12 O3
O 5.022111 0.526691 0.498336
O -1.201697 2.660908 -0.669016
O 1.695593 1.590295 1.358639
C 7.310931 -0.094808 0.146963
C -2.112497 4.925186 -0.417283
C 6.272570 0.372044 1.158960
C -2.086265 3.483247 0.095743
C 7.576194 0.919768 -0.972584
C -3.124326 5.822605 0.315323
C 3.985490 0.983439 1.348285
C 0.153382 2.668779 -0.233284
C 2.721713 1.093930 0.508685
C 0.387822 1.559496 0.801173
C 8.627352 0.429987 -1.974994
C -2.777504 6.091898 1.786969
H 8.245005 -0.304508 0.688762
H 6.974212 -1.047132 -0.285921
H -1.107045 5.361845 -0.331962
H -2.350391 4.890605 -1.488246
H 6.577423 1.334518 1.607334
H 6.172689 -0.360494 1.978093
H -3.079884 3.030566 -0.007066
H -1.815746 3.445261 1.161087
H 6.633426 1.130895 -1.491351
H 7.905793 1.869878 -0.526041
H -3.188400 6.780936 -0.217059
H -4.125406 5.371089 0.249612
H 3.819658 0.282192 2.182329
H 4.233056 1.967939 1.777834
H 0.437806 3.638877 0.200465
H 0.767394 2.508259 -1.125639
H 2.907672 1.765777 -0.341819
H 2.450762 0.103977 0.108953
H 0.177912 0.579436 0.344561
H -0.298726 1.692381 1.643665
H 8.307187 -0.503156 -2.456561
H 8.802846 1.169734 -2.765393
H 9.588071 0.234633 -1.480276
H -1.771992 6.523206 1.879340
H -3.485939 6.798371 2.235792
H -2.802232 5.176529 2.389823