23
H14 C6 O3
O 0.000001 0.197797 0.000010
O -3.542520 -0.401443 -0.000271
O 3.542524 -0.401445 0.000263
C -1.180861 -0.580832 -0.000239
C 1.180861 -0.580840 0.000243
C -2.363239 0.376975 0.000232
C 2.363239 0.376968 -0.000225
C -4.714978 0.383456 0.000075
C 4.714977 0.383462 -0.000086
H -1.228168 -1.229622 -0.889523
H -1.228065 -1.230357 0.888514
H 1.228170 -1.229638 0.889520
H 1.228055 -1.230354 -0.888517
H -2.314833 1.027709 -0.888513
H -2.314946 1.026710 0.889712
H 2.314836 1.027692 0.888526
H 2.314937 1.026711 -0.889698
H -5.564395 -0.304765 -0.000251
H -4.775542 1.026972 -0.892621
H -4.775567 1.026150 0.893361
H 4.775553 1.026164 -0.893367
H 5.564398 -0.304753 0.000226
H 4.775543 1.026971 0.892615