15
H10 C4 O1
O 0.000000 0.257190 -0.000003
C 1.182915 -0.521990 -0.000006
C -1.182949 -0.522023 -0.000007
C 2.378907 0.416502 0.000009
C -2.378897 0.416506 0.000005
H 1.206071 -1.179206 0.887027
H 1.206080 -1.179191 -0.887053
H -1.206023 -1.179193 -0.887058
H -1.206019 -1.179209 0.887033
H 3.314669 -0.153501 0.000008
H 2.362265 1.058065 -0.886941
H 2.362256 1.058048 0.886972
H -3.314700 -0.153431 -0.000001
H -2.362230 1.058051 0.886969
H -2.362228 1.058073 -0.886942