24
H16 O8
O 2.051625 -0.018293 -0.889707
H 2.040204 0.098949 -1.853029
H 1.591999 0.783005 -0.500088
O 0.700669 1.944779 0.370326
H -0.076828 2.234457 -0.160553
H 0.301008 1.384865 1.082402
O -0.583948 0.098809 2.030768
H -0.198043 -0.692981 1.582591
H -1.477204 0.176979 1.636679
H -0.363596 -2.115841 -0.156136
O 0.429215 -1.936851 0.387433
H 1.019402 -1.375624 -0.166147
H -1.831823 2.444618 -1.889344
O -1.752426 2.448716 -0.922939
H -2.249733 1.661813 -0.602189
H -2.264322 -2.375339 -1.819318
H -2.608483 -3.058953 -0.475906
O -2.188151 -2.268997 -0.856102
H -2.791188 -0.678678 -0.148811
O -2.904512 0.194200 0.293549
H -3.828580 0.238466 0.587500
H 3.811935 -0.144479 -0.341368
O 4.765255 -0.227278 -0.113706
H 4.783431 -0.461947 0.826747