36
H24 O12
O 0.995030 0.105242 -0.174660
H 1.776314 0.681323 -0.137896
H 0.212630 0.691007 -0.163778
O -1.489349 1.401267 0.154575
H -1.796679 2.257264 -0.204764
H -2.116042 0.717008 -0.166215
O -2.343765 3.885060 -0.826908
H -2.473775 3.960675 -1.779589
H -3.159724 4.217051 -0.434017
O -1.834796 -2.831085 0.834786
H -1.087296 -2.388208 1.317442
H -2.130782 -3.562487 1.387060
O -5.704404 0.337329 -0.933284
H -4.837059 -0.092923 -0.807947
H -6.317181 -0.382544 -1.113491
O -3.116849 -0.744523 -0.584614
H -2.935208 -1.373666 0.139671
H -2.729272 -1.211550 -1.350414
O 3.443102 1.657412 -0.087450
H 3.464401 2.454180 -0.632621
H 3.705623 1.944186 0.796474
O -1.256195 0.834834 2.871195
H -1.379588 1.188312 1.964154
H -0.887929 1.555080 3.393241
O 7.784926 -0.271901 -0.111765
H 6.874751 -0.329765 -0.462366
H 8.352613 -0.280837 -0.888826
O 0.156590 -1.435359 1.995649
H 0.595030 -0.977940 1.246468
H -0.283081 -0.706269 2.477257
O 5.152744 -0.396281 -1.092589
H 4.548363 0.287632 -0.749561
H 4.680327 -1.230872 -1.001990
O -1.739915 -2.759157 -1.972322
H -1.586589 -3.000245 -1.038262
H -0.866807 -2.679103 -2.370927