16
H10 C5 O1
O -0.795155 -0.816037 0.534766
C 0.612117 -0.964687 0.268964
C 1.167699 0.463694 0.301742
C 0.013613 1.264119 -0.319662
C -1.222311 0.520408 0.220585
C 1.206214 -1.929475 1.282353
H 0.734235 -1.379222 -0.747455
H 1.337312 0.771074 1.342541
H 2.112146 0.562634 -0.244061
H 0.018958 2.324269 -0.045571
H 0.054789 1.199411 -1.414042
H -2.042287 0.474082 -0.506932
H -1.603888 0.982782 1.141299
H 0.700042 -2.899463 1.232166
H 2.273699 -2.085229 1.082850
H 1.090246 -1.533040 2.297797