13
H8 C4 O1
O 1.132535 -0.018161 -0.015561
C -1.128152 -0.724244 -0.217635
C -1.104996 0.742481 0.242680
C 0.295614 -1.177550 0.129279
C 0.320794 1.161659 -0.137801
H -1.295333 -0.780655 -1.300695
H -1.896910 -1.325930 0.278546
H -1.870481 1.362754 -0.235331
H -1.245267 0.802539 1.329361
H 0.357105 -1.536214 1.168110
H 0.676779 -1.963888 -0.531960
H 0.366145 1.521104 -1.177153
H 0.736777 1.936974 0.515450