15
H9 C4 N1 O1
O 1.015978 -0.192388 -0.300890
N 2.953380 0.885350 -0.836659
C 2.227496 -0.049539 -0.134992
C 4.355212 1.196085 -0.601173
C 2.262997 1.796283 -1.742032
C 2.978749 -0.928982 0.858251
H 4.871896 1.312716 -1.562062
H 4.464701 2.136652 -0.040026
H 4.854421 0.402203 -0.047041
H 1.237388 1.454886 -1.878503
H 2.251243 2.816132 -1.331006
H 2.776183 1.818098 -2.711580
H 3.443684 -0.337828 1.656118
H 2.252379 -1.611316 1.301710
H 3.765352 -1.517032 0.370756