22
H14 C6 O2
O -0.753726 -0.892165 1.098497
O 0.572828 1.514689 0.624884
C 2.736984 -2.404098 0.434042
C 1.204287 -2.243898 0.514214
C 0.686795 -0.891018 1.009983
C 3.420688 -2.140350 1.784846
C 3.086419 -3.807826 -0.084432
C 1.124532 0.295742 0.148762
H 3.124917 -1.676222 -0.293682
H 0.794785 -3.018334 1.177852
H 0.779109 -2.431728 -0.485477
H 1.006352 -0.708555 2.040828
H 3.019042 -2.807734 2.559402
H 4.500097 -2.321050 1.715320
H 3.281533 -1.108284 2.126212
H 2.621841 -4.003166 -1.059093
H 4.170636 -3.927826 -0.197989
H 2.735965 -4.578896 0.614867
H 2.212169 0.415320 0.172800
H 0.826748 0.111989 -0.900202
H -1.114105 -1.244112 0.267252
H -0.353276 1.328120 0.859345