25
P1 H6 C6 O3 F9
P 1.512744 -0.544635 -0.123446
F 0.155351 2.529227 -1.354125
F -0.660454 1.608949 -3.152966
F -2.012922 2.331805 -1.593952
F -1.187830 -2.185698 0.577335
F -0.572319 -4.036088 -0.398691
F -0.898362 -4.004493 1.761674
F 3.070867 2.292365 -0.098228
F 5.023764 1.437081 -0.553520
F 4.105540 2.849778 -1.946191
O 0.439865 -0.267055 -1.377218
O 1.590235 -2.208835 -0.117993
O 2.899610 -0.413930 -1.017719
C -0.803331 0.364431 -1.121659
C 1.043786 -2.926651 0.972170
C 3.168960 0.692217 -1.863856
C -0.827246 1.718206 -1.816907
C -0.412573 -3.297564 0.714361
C 3.851432 1.821705 -1.101470
H -1.608883 -0.252743 -1.527885
H -0.982967 0.533889 -0.053520
H 1.613998 -3.852088 1.083436
H 1.079286 -2.364412 1.914073
H 3.855962 0.346089 -2.639506
H 2.263659 1.088800 -2.332378