14
H8 C3 S1 O2
S 0.884803 0.005633 -0.019050
O 0.502952 -0.909142 -1.112350
O 0.407427 -0.236031 1.356316
C 0.393551 1.696656 -0.499145
C 2.693514 0.088381 0.028345
C -1.129262 1.796646 -0.584898
H 0.807906 2.365689 0.262177
H 0.874219 1.895198 -1.462699
H 3.032523 -0.910845 0.313425
H 3.068403 0.346042 -0.964832
H 3.001026 0.820557 0.778468
H -1.588798 1.569028 0.381545
H -1.410787 2.815094 -0.873227
H -1.522986 1.101912 -1.332774