23
H14 C6 S1 O2
S 0.849007 0.031068 0.102174
O 0.203936 -0.613650 1.265689
O 0.531622 1.436007 -0.230560
C 0.526035 -1.016108 -1.363003
C 2.656646 -0.093563 0.316437
C -0.966539 -1.328564 -1.530414
C 3.126464 0.786272 1.478363
C -1.827564 -0.119690 -1.917027
C 4.645860 0.691178 1.665555
H 0.936641 -0.474488 -2.221969
H 1.103785 -1.932932 -1.201130
H 2.877393 -1.151835 0.493547
H 3.105040 0.217751 -0.634040
H -1.040099 -2.101221 -2.307526
H -1.335339 -1.779030 -0.601420
H 2.831962 1.823250 1.281788
H 2.612026 0.472728 2.393998
H -1.463737 0.343398 -2.842817
H -2.865784 -0.430967 -2.078945
H -1.816202 0.647952 -1.138057
H 5.179990 1.021239 0.765650
H 4.972173 1.323796 2.498732
H 4.957693 -0.337790 1.884504