10
H6 C2 S1 O1
S 0.850562 -0.023287 -0.216844
O 0.428800 -1.479145 -0.314987
C 0.444066 0.533921 1.487777
C 2.675586 -0.012797 0.008131
H 0.862815 -0.179460 2.204813
H 0.840093 1.541052 1.655651
H -0.645785 0.542510 1.570399
H 3.115023 -0.379119 -0.923203
H 3.021016 1.006777 0.209334
H 2.936845 -0.687401 0.829749