20
H12 C5 S1 O2
S 0.956029 0.091716 0.007893
O 0.490450 1.453431 0.347767
O 0.530711 -0.540225 -1.259946
C 0.472434 -1.019625 1.398968
C 2.783829 0.121191 0.035270
C -1.050406 -0.931557 1.545592
C 0.964479 -2.447632 1.158712
C 3.299759 1.125723 -0.995630
H 0.960407 -0.573099 2.274101
H 3.074086 0.393980 1.055405
H 3.120537 -0.895785 -0.183264
H -1.547246 -1.328975 0.654135
H -1.360247 -1.530689 2.409398
H -1.377718 0.100242 1.699190
H 2.056762 -2.514871 1.122431
H 0.619994 -3.088683 1.978510
H 0.559945 -2.838440 0.219617
H 2.933965 2.132459 -0.774574
H 4.394896 1.137589 -0.973773
H 2.976224 0.848939 -2.003652