17
H10 C4 S1 O2
S 1.090534 0.020748 0.040605
O 0.516473 -0.509529 -1.212509
O 2.551057 0.193600 0.177954
C 0.501869 -1.054619 1.418515
C 0.979219 -2.480005 1.121182
C 0.992061 -0.532654 2.769718
C 0.314285 1.631975 0.341137
H -0.591327 -1.001179 1.344461
H 2.072928 -2.532957 1.142462
H 0.586105 -3.154634 1.890157
H 0.629983 -2.822489 0.143341
H 0.597809 0.461890 3.003506
H 0.659038 -1.215028 3.560271
H 2.085602 -0.487587 2.788685
H 0.579061 2.246089 -0.523302
H -0.769602 1.505594 0.394638
H 0.716314 2.072882 1.254677