10
H6 C2 S2
S 1.086133 0.122715 0.130282
S 0.710018 0.965171 -1.737361
C 2.888460 -0.231212 0.059947
C 1.133026 2.734832 -1.476625
H 3.142772 -0.728383 1.002617
H 3.117893 -0.897443 -0.775602
H 3.470608 0.690691 -0.025119
H 0.526759 3.161562 -0.673515
H 2.195755 2.859412 -1.250527
H 0.905476 3.248774 -2.417139